1

   Abaqus 6.12-1                                  Date 07-ÈýÔÂ-2017   Time 13:33:03
   For use by  under license from Dassault Systemes or its subsidiary.

 I4I5 transIso uniaxial stretch                                                  
                                                                                 
 STEP    1     INCREMENT     1     STEP TIME    0.00    


                        S T E P       1     S T A T I C   A N A L Y S I S


                                                                                          

     AUTOMATIC TIME CONTROL WITH -
          A SUGGESTED INITIAL TIME INCREMENT OF                0.100    
          AND A TOTAL TIME PERIOD OF                            1.00    
          THE MINIMUM TIME INCREMENT ALLOWED IS                1.000E-05
          THE MAXIMUM TIME INCREMENT ALLOWED IS                0.100    

     LINEAR EQUATION SOLVER TYPE         DIRECT SPARSE

 CONVERGENCE TOLERANCE PARAMETERS FOR FORCE    
     CRITERION FOR RESIDUAL FORCE     FOR A NONLINEAR PROBLEM          5.000E-03
     CRITERION FOR DISP.    CORRECTION IN A NONLINEAR PROBLEM          1.000E-02
     INITIAL VALUE OF TIME AVERAGE FORCE                               1.000E-02
     AVERAGE FORCE     IS TIME AVERAGE FORCE    
     ALTERNATE CRIT. FOR RESIDUAL FORCE     FOR A NONLINEAR PROBLEM    2.000E-02
     CRITERION FOR ZERO FORCE     RELATIVE TO TIME AVRG. FORCE         1.000E-05
     CRITERION FOR RESIDUAL FORCE     WHEN THERE IS ZERO FLUX          1.000E-05
     CRITERION FOR DISP.    CORRECTION WHEN THERE IS ZERO FLUX         1.000E-03
     CRITERION FOR RESIDUAL FORCE     FOR A LINEAR INCREMENT           1.000E-08
     FIELD CONVERSION RATIO                                             1.00    
     CRITERION FOR ZERO FORCE     REL. TO TIME AVRG. MAX. FORCE        1.000E-05
     CRITERION FOR ZERO DISP.    RELATIVE TO CHARACTERISTIC LENGTH     1.000E-08

     VOLUMETRIC STRAIN COMPATIBILITY TOLERANCE FOR HYBRID SOLIDS       1.000E-05
     AXIAL STRAIN COMPATIBILITY TOLERANCE FOR HYBRID BEAMS             1.000E-05
     TRANS. SHEAR STRAIN COMPATIBILITY TOLERANCE FOR HYBRID BEAMS      1.000E-05
     SOFT CONTACT CONSTRAINT COMPATIBILITY TOLERANCE FOR P>P0          5.000E-03
     SOFT CONTACT CONSTRAINT COMPATIBILITY TOLERANCE FOR P=0.0         0.100    
     CONTACT FORCE ERROR TOLERANCE FOR CONVERT SDI=YES                 1.00    
     DISPLACEMENT COMPATIBILITY TOLERANCE FOR DCOUP ELEMENTS           1.000E-05
     ROTATION COMPATIBILITY TOLERANCE FOR DCOUP ELEMENTS               1.000E-05

 EQUILIBRIUM WILL BE CHECKED FOR SEVERE DISCONTINUITY ITERATIONS

 TIME INCREMENTATION CONTROL PARAMETERS:
     FIRST EQUILIBRIUM ITERATION FOR CONSECUTIVE DIVERGENCE CHECK              4
     EQUILIBRIUM ITERATION AT WHICH LOG. CONVERGENCE RATE CHECK BEGINS         8
     EQUILIBRIUM ITERATION AFTER WHICH ALTERNATE RESIDUAL IS USED              9
     MAXIMUM EQUILIBRIUM ITERATIONS ALLOWED                                   16
     EQUILIBRIUM ITERATION COUNT FOR CUT-BACK IN NEXT INCREMENT               10
     MAXIMUM EQUILIB. ITERS IN TWO INCREMENTS FOR TIME INCREMENT INCREASE      4
     MAXIMUM ITERATIONS FOR SEVERE DISCONTINUITIES                            50
     MAXIMUM CUT-BACKS ALLOWED IN AN INCREMENT                                 5
     MAXIMUM DISCON. ITERS IN TWO INCREMENTS FOR TIME INCREMENT INCREASE      50
     MAXIMUM CONTACT AUGMENTATIONS FOR *SURFACE BEHAVIOR,AUGMENTED LAGRANGE   50
     CUT-BACK FACTOR AFTER DIVERGENCE                                 0.2500    
     CUT-BACK FACTOR FOR TOO SLOW CONVERGENCE                         0.5000    
     CUT-BACK FACTOR AFTER TOO MANY EQUILIBRIUM ITERATIONS            0.7500    
     CUT-BACK FACTOR AFTER TOO MANY SEVERE DISCONTINUITY ITERATIONS   0.2500    
     CUT-BACK FACTOR AFTER PROBLEMS IN ELEMENT ASSEMBLY               0.2500    
     INCREASE FACTOR AFTER TWO INCREMENTS THAT CONVERGE QUICKLY        1.500    
     MAX. TIME INCREMENT INCREASE FACTOR ALLOWED                       1.500    
     MAX. TIME INCREMENT INCREASE FACTOR ALLOWED (DYNAMICS)            1.250    
     MAX. TIME INCREMENT INCREASE FACTOR ALLOWED (DIFFUSION)           2.000    
     MINIMUM TIME INCREMENT RATIO FOR EXTRAPOLATION TO OCCUR          0.1000    
     MAX. RATIO OF TIME INCREMENT TO STABILITY LIMIT                   1.000    
     FRACTION OF STABILITY LIMIT FOR NEW TIME INCREMENT               0.9500    
     TIME INCREMENT INCREASE FACTOR BEFORE A TIME POINT                1.000    
     GLOBAL STABILIZATION CONTROL IS NOT USED

          PRINT OF INCREMENT NUMBER, TIME, ETC., EVERY    1  INCREMENTS

     THE MAXIMUM NUMBER OF INCREMENTS IN THIS STEP IS                    1000

          LARGE DISPLACEMENT THEORY WILL BE USED

     LINEAR EXTRAPOLATION WILL BE USED

     CHARACTERISTIC ELEMENT LENGTH      1.00    

     DETAILS REGARDING ACTUAL SOLUTION WAVEFRONT REQUESTED

     DETAILED OUTPUT OF DIAGNOSTICS TO DATABASE REQUESTED

     PRINT OF INCREMENT NUMBER, TIME, ETC., TO THE MESSAGE FILE EVERY     1  INCREMENTS
          THE INITIAL TIME INCREMENT WAS REDUCED TO   2.000E-02 TO MEET THE NEXT OUTPUT TIME POINT

     EQUATIONS ARE BEING REORDERED TO MINIMIZE WAVEFRONT

     COLLECTING MODEL CONSTRAINT INFORMATION FOR OVERCONSTRAINT CHECKS

     COLLECTING STEP CONSTRAINT INFORMATION FOR OVERCONSTRAINT CHECKS


  INCREMENT     1 STARTS. ATTEMPT NUMBER  1, TIME INCREMENT  2.000E-02

  NUMBER OF EQUATIONS =       25     NUMBER OF FLOATING PT. OPERATIONS =  5.52E+03

     CHECK POINT   START OF SOLVER    

     CHECK POINT  END OF SOLVER       

       ELAPSED USER TIME (SEC)      =   0.0000    
       ELAPSED SYSTEM TIME (SEC)    =   0.0000    
       ELAPSED TOTAL CPU TIME (SEC) =   0.0000    
       ELAPSED WALLCLOCK TIME (SEC) =          0

               CONVERGENCE CHECKS FOR EQUILIBRIUM ITERATION     1


 AVERAGE FORCE                       1.51       TIME AVG. FORCE        1.51    
 LARGEST RESIDUAL FORCE             1.185E-02   AT NODE          7   DOF  1
 LARGEST INCREMENT OF DISP.         1.000E-02   AT NODE          3   DOF  2
 LARGEST CORRECTION TO DISP.        1.000E-02   AT NODE          3   DOF  2
          FORCE     EQUILIBRIUM NOT ACHIEVED WITHIN TOLERANCE.

 COMPATIBILITY ERRORS:
    TYPE                NUMBER EXCEEDING TOLERANCE  MAXIMUM ERROR        IN ELEMENT
 VOLUMETRIC                          1                3.483E-03                  1

  NUMBER OF EQUATIONS =       25     NUMBER OF FLOATING PT. OPERATIONS =  5.52E+03

     CHECK POINT   START OF SOLVER    

     CHECK POINT  END OF SOLVER       

       ELAPSED USER TIME (SEC)      =   0.0000    
       ELAPSED SYSTEM TIME (SEC)    =   0.0000    
       ELAPSED TOTAL CPU TIME (SEC) =   0.0000    
       ELAPSED WALLCLOCK TIME (SEC) =          0

               CONVERGENCE CHECKS FOR EQUILIBRIUM ITERATION     2


 AVERAGE FORCE                       1.68       TIME AVG. FORCE        1.68    
 LARGEST RESIDUAL FORCE             4.794E-03   AT NODE          5   DOF  3
 LARGEST INCREMENT OF DISP.         1.000E-02   AT NODE          3   DOF  2
 LARGEST CORRECTION TO DISP.       -1.204E-03   AT NODE          8   DOF  3
          DISP.    CORRECTION TOO LARGE COMPARED TO DISP.    INCREMENT

 COMPATIBILITY ERRORS:
    TYPE                NUMBER EXCEEDING TOLERANCE  MAXIMUM ERROR        IN ELEMENT
 VOLUMETRIC                          1               -9.590E-04                  1

  NUMBER OF EQUATIONS =       25     NUMBER OF FLOATING PT. OPERATIONS =  5.52E+03

     CHECK POINT   START OF SOLVER    

     CHECK POINT  END OF SOLVER       

       ELAPSED USER TIME (SEC)      =   0.0000    
       ELAPSED SYSTEM TIME (SEC)    =   0.0000    
       ELAPSED TOTAL CPU TIME (SEC) =   0.0000    
       ELAPSED WALLCLOCK TIME (SEC) =          0

               CONVERGENCE CHECKS FOR EQUILIBRIUM ITERATION     3


 AVERAGE FORCE                       1.63       TIME AVG. FORCE        1.63    
 LARGEST RESIDUAL FORCE            -1.140E-03   AT NODE          7   DOF  3
 LARGEST INCREMENT OF DISP.         1.000E-02   AT NODE          3   DOF  2
 LARGEST CORRECTION TO DISP.        3.449E-04   AT NODE          5   DOF  3
 ESTIMATE OF DISP.    CORRECTION   -8.202E-05
 FORCE     EQUILIB. ACCEPTED BASED ON SMALL RESIDUAL AND ESTIMATED CORRECTION

 COMPATIBILITY ERRORS:
    TYPE                NUMBER EXCEEDING TOLERANCE  MAXIMUM ERROR        IN ELEMENT
 VOLUMETRIC                          1                2.791E-04                  1

  NUMBER OF EQUATIONS =       25     NUMBER OF FLOATING PT. OPERATIONS =  5.52E+03

     CHECK POINT   START OF SOLVER    

     CHECK POINT  END OF SOLVER       

       ELAPSED USER TIME (SEC)      =   0.0000    
       ELAPSED SYSTEM TIME (SEC)    =   0.0000    
       ELAPSED TOTAL CPU TIME (SEC) =   0.0000    
       ELAPSED WALLCLOCK TIME (SEC) =          0

               CONVERGENCE CHECKS FOR EQUILIBRIUM ITERATION     4


 AVERAGE FORCE                       1.64       TIME AVG. FORCE        1.64    
 LARGEST RESIDUAL FORCE             3.511E-04   AT NODE          5   DOF  3
 LARGEST INCREMENT OF DISP.         1.000E-02   AT NODE          3   DOF  2
 LARGEST CORRECTION TO DISP.       -1.001E-04   AT NODE          7   DOF  3
 ESTIMATE OF DISP.    CORRECTION    3.082E-05
 FORCE     EQUILIB. ACCEPTED BASED ON SMALL RESIDUAL AND ESTIMATED CORRECTION

 COMPATIBILITY ERRORS:
    TYPE                NUMBER EXCEEDING TOLERANCE  MAXIMUM ERROR        IN ELEMENT
 VOLUMETRIC                          1               -8.062E-05                  1

  NUMBER OF EQUATIONS =       25     NUMBER OF FLOATING PT. OPERATIONS =  5.52E+03

     CHECK POINT   START OF SOLVER    

     CHECK POINT  END OF SOLVER       

       ELAPSED USER TIME (SEC)      =   0.0000    
       ELAPSED SYSTEM TIME (SEC)    =   0.0000    
       ELAPSED TOTAL CPU TIME (SEC) =   0.0000    
       ELAPSED WALLCLOCK TIME (SEC) =          0

               CONVERGENCE CHECKS FOR EQUILIBRIUM ITERATION     5


 AVERAGE FORCE                       1.64       TIME AVG. FORCE        1.64    
 LARGEST RESIDUAL FORCE            -9.981E-05   AT NODE          6   DOF  3
 LARGEST INCREMENT OF DISP.         1.000E-02   AT NODE          3   DOF  2
 LARGEST CORRECTION TO DISP.        2.893E-05   AT NODE          5   DOF  3
          THE FORCE     EQUILIBRIUM EQUATIONS HAVE CONVERGED

 COMPATIBILITY ERRORS:
    TYPE                NUMBER EXCEEDING TOLERANCE  MAXIMUM ERROR        IN ELEMENT
 VOLUMETRIC                          1                2.334E-05                  1

  NUMBER OF EQUATIONS =       25     NUMBER OF FLOATING PT. OPERATIONS =  5.52E+03

     CHECK POINT   START OF SOLVER    

     CHECK POINT  END OF SOLVER       

       ELAPSED USER TIME (SEC)      =   0.0000    
       ELAPSED SYSTEM TIME (SEC)    =   0.0000    
       ELAPSED TOTAL CPU TIME (SEC) =   0.0000    
       ELAPSED WALLCLOCK TIME (SEC) =          0

               CONVERGENCE CHECKS FOR EQUILIBRIUM ITERATION     6


 AVERAGE FORCE                       1.64       TIME AVG. FORCE        1.64    
 LARGEST RESIDUAL FORCE             2.903E-05   AT NODE          3   DOF  1
 LARGEST INCREMENT OF DISP.         1.000E-02   AT NODE          3   DOF  2
 LARGEST CORRECTION TO DISP.       -8.372E-06   AT NODE          6   DOF  3
          THE FORCE     EQUILIBRIUM EQUATIONS HAVE CONVERGED

 COMPATIBILITY ERRORS:
    TYPE                NUMBER EXCEEDING TOLERANCE  MAXIMUM ERROR        IN ELEMENT
 VOLUMETRIC                          0               -6.751E-06                  1
          TIME INCREMENT MAY NOW INCREASE TO    0.100    
          TIME INCREMENT REDUCED TO   2.000E-02 TO MEET NEXT OUTPUT TIME POINT

 ITERATION SUMMARY FOR THE INCREMENT:   6 TOTAL ITERATIONS, OF WHICH
   0 ARE SEVERE DISCONTINUITY ITERATIONS AND  6 ARE EQUILIBRIUM ITERATIONS.

 TIME INCREMENT COMPLETED  2.000E-02,  FRACTION OF STEP COMPLETED  2.000E-02
 STEP TIME COMPLETED       2.000E-02,  TOTAL TIME COMPLETED        2.000E-02


  INCREMENT     2 STARTS. ATTEMPT NUMBER  1, TIME INCREMENT  2.000E-02

  NUMBER OF EQUATIONS =       25     NUMBER OF FLOATING PT. OPERATIONS =  5.52E+03

     CHECK POINT   START OF SOLVER    

     CHECK POINT  END OF SOLVER       

       ELAPSED USER TIME (SEC)      =   0.0000    
       ELAPSED SYSTEM TIME (SEC)    =   0.0000    
       ELAPSED TOTAL CPU TIME (SEC) =   0.0000    
       ELAPSED WALLCLOCK TIME (SEC) =          0

               CONVERGENCE CHECKS FOR EQUILIBRIUM ITERATION     1


 AVERAGE FORCE                       3.29       TIME AVG. FORCE        2.47    
 LARGEST RESIDUAL FORCE            -7.665E-04   AT NODE          7   DOF  3
 LARGEST INCREMENT OF DISP.         1.000E-02   AT NODE          3   DOF  2
 LARGEST CORRECTION TO DISP.        1.095E-04   AT NODE          3   DOF  1
 ESTIMATE OF DISP.    CORRECTION   -2.043E-06
 FORCE     EQUILIB. ACCEPTED BASED ON SMALL RESIDUAL AND ESTIMATED CORRECTION

 COMPATIBILITY ERRORS:
    TYPE                NUMBER EXCEEDING TOLERANCE  MAXIMUM ERROR        IN ELEMENT
 VOLUMETRIC                          1                8.770E-05                  1

  NUMBER OF EQUATIONS =       25     NUMBER OF FLOATING PT. OPERATIONS =  5.52E+03

     CHECK POINT   START OF SOLVER    

     CHECK POINT  END OF SOLVER       

       ELAPSED USER TIME (SEC)      =   0.0000    
       ELAPSED SYSTEM TIME (SEC)    =  0.10000    
       ELAPSED TOTAL CPU TIME (SEC) =  0.10000    
       ELAPSED WALLCLOCK TIME (SEC) =          0

               CONVERGENCE CHECKS FOR EQUILIBRIUM ITERATION     2


 AVERAGE FORCE                       3.44       TIME AVG. FORCE        2.54    
 LARGEST RESIDUAL FORCE             2.253E-04   AT NODE          7   DOF  3
 LARGEST INCREMENT OF DISP.         1.000E-02   AT NODE          3   DOF  2
 LARGEST CORRECTION TO DISP.       -3.188E-05   AT NODE          5   DOF  3
          THE FORCE     EQUILIBRIUM EQUATIONS HAVE CONVERGED

 COMPATIBILITY ERRORS:
    TYPE                NUMBER EXCEEDING TOLERANCE  MAXIMUM ERROR        IN ELEMENT
 VOLUMETRIC                          1               -2.550E-05                  1

  NUMBER OF EQUATIONS =       25     NUMBER OF FLOATING PT. OPERATIONS =  5.52E+03

     CHECK POINT   START OF SOLVER    

     CHECK POINT  END OF SOLVER       

       ELAPSED USER TIME (SEC)      =   0.0000    
       ELAPSED SYSTEM TIME (SEC)    =   0.0000    
       ELAPSED TOTAL CPU TIME (SEC) =   0.0000    
       ELAPSED WALLCLOCK TIME (SEC) =          0

               CONVERGENCE CHECKS FOR EQUILIBRIUM ITERATION     3


 AVERAGE FORCE                       3.43       TIME AVG. FORCE        2.54    
 LARGEST RESIDUAL FORCE            -6.533E-05   AT NODE          7   DOF  3
 LARGEST INCREMENT OF DISP.         1.000E-02   AT NODE          3   DOF  2
 LARGEST CORRECTION TO DISP.        9.273E-06   AT NODE          7   DOF  3
          THE FORCE     EQUILIBRIUM EQUATIONS HAVE CONVERGED

 COMPATIBILITY ERRORS:
    TYPE                NUMBER EXCEEDING TOLERANCE  MAXIMUM ERROR        IN ELEMENT
 VOLUMETRIC                          0                7.418E-06                  1
          TIME INCREMENT MAY NOW INCREASE TO    0.100    
          TIME INCREMENT REDUCED TO   2.000E-02 TO MEET NEXT OUTPUT TIME POINT

 ITERATION SUMMARY FOR THE INCREMENT:   3 TOTAL ITERATIONS, OF WHICH
   0 ARE SEVERE DISCONTINUITY ITERATIONS AND  3 ARE EQUILIBRIUM ITERATIONS.

 TIME INCREMENT COMPLETED  2.000E-02,  FRACTION OF STEP COMPLETED  4.000E-02
 STEP TIME COMPLETED       4.000E-02,  TOTAL TIME COMPLETED        4.000E-02


  INCREMENT     3 STARTS. ATTEMPT NUMBER  1, TIME INCREMENT  2.000E-02

  NUMBER OF EQUATIONS =       25     NUMBER OF FLOATING PT. OPERATIONS =  5.52E+03

     CHECK POINT   START OF SOLVER    

     CHECK POINT  END OF SOLVER       

       ELAPSED USER TIME (SEC)      =   0.0000    
       ELAPSED SYSTEM TIME (SEC)    =   0.0000    
       ELAPSED TOTAL CPU TIME (SEC) =   0.0000    
       ELAPSED WALLCLOCK TIME (SEC) =          0

               CONVERGENCE CHECKS FOR EQUILIBRIUM ITERATION     1


 AVERAGE FORCE                       5.17       TIME AVG. FORCE        3.42    
 LARGEST RESIDUAL FORCE            -9.817E-04   AT NODE          7   DOF  1
 LARGEST INCREMENT OF DISP.         1.000E-02   AT NODE          3   DOF  2
 LARGEST CORRECTION TO DISP.        9.162E-05   AT NODE          7   DOF  1
          THE FORCE     EQUILIBRIUM EQUATIONS HAVE CONVERGED

 COMPATIBILITY ERRORS:
    TYPE                NUMBER EXCEEDING TOLERANCE  MAXIMUM ERROR        IN ELEMENT
 VOLUMETRIC                          1                7.272E-05                  1

  NUMBER OF EQUATIONS =       25     NUMBER OF FLOATING PT. OPERATIONS =  5.52E+03

     CHECK POINT   START OF SOLVER    

     CHECK POINT  END OF SOLVER       

       ELAPSED USER TIME (SEC)      =   0.0000    
       ELAPSED SYSTEM TIME (SEC)    =   0.0000    
       ELAPSED TOTAL CPU TIME (SEC) =   0.0000    
       ELAPSED WALLCLOCK TIME (SEC) =          0

               CONVERGENCE CHECKS FOR EQUILIBRIUM ITERATION     2


 AVERAGE FORCE                       5.18       TIME AVG. FORCE        3.42    
 LARGEST RESIDUAL FORCE             2.887E-04   AT NODE          7   DOF  1
 LARGEST INCREMENT OF DISP.         1.000E-02   AT NODE          3   DOF  2
 LARGEST CORRECTION TO DISP.       -2.680E-05   AT NODE          7   DOF  1
          THE FORCE     EQUILIBRIUM EQUATIONS HAVE CONVERGED

 COMPATIBILITY ERRORS:
    TYPE                NUMBER EXCEEDING TOLERANCE  MAXIMUM ERROR        IN ELEMENT
 VOLUMETRIC                          1               -2.125E-05                  1

  NUMBER OF EQUATIONS =       25     NUMBER OF FLOATING PT. OPERATIONS =  5.52E+03

     CHECK POINT   START OF SOLVER    

     CHECK POINT  END OF SOLVER       

       ELAPSED USER TIME (SEC)      =   0.0000    
       ELAPSED SYSTEM TIME (SEC)    =   0.0000    
       ELAPSED TOTAL CPU TIME (SEC) =   0.0000    
       ELAPSED WALLCLOCK TIME (SEC) =          0

               CONVERGENCE CHECKS FOR EQUILIBRIUM ITERATION     3


 AVERAGE FORCE                       5.18       TIME AVG. FORCE        3.42    
 LARGEST RESIDUAL FORCE            -8.425E-05   AT NODE          6   DOF  1
 LARGEST INCREMENT OF DISP.         1.000E-02   AT NODE          3   DOF  2
 LARGEST CORRECTION TO DISP.        7.833E-06   AT NODE          7   DOF  1
          THE FORCE     EQUILIBRIUM EQUATIONS HAVE CONVERGED

 COMPATIBILITY ERRORS:
    TYPE                NUMBER EXCEEDING TOLERANCE  MAXIMUM ERROR        IN ELEMENT
 VOLUMETRIC                          0                6.213E-06                  1
          TIME INCREMENT MAY NOW INCREASE TO    0.100    
          TIME INCREMENT REDUCED TO   2.000E-02 TO MEET NEXT OUTPUT TIME POINT

 ITERATION SUMMARY FOR THE INCREMENT:   3 TOTAL ITERATIONS, OF WHICH
   0 ARE SEVERE DISCONTINUITY ITERATIONS AND  3 ARE EQUILIBRIUM ITERATIONS.

 TIME INCREMENT COMPLETED  2.000E-02,  FRACTION OF STEP COMPLETED  6.000E-02
 STEP TIME COMPLETED       6.000E-02,  TOTAL TIME COMPLETED        6.000E-02


  INCREMENT     4 STARTS. ATTEMPT NUMBER  1, TIME INCREMENT  2.000E-02

  NUMBER OF EQUATIONS =       25     NUMBER OF FLOATING PT. OPERATIONS =  5.52E+03

     CHECK POINT   START OF SOLVER    

     CHECK POINT  END OF SOLVER       

       ELAPSED USER TIME (SEC)      =   0.0000    
       ELAPSED SYSTEM TIME (SEC)    =   0.0000    
       ELAPSED TOTAL CPU TIME (SEC) =   0.0000    
       ELAPSED WALLCLOCK TIME (SEC) =          0

               CONVERGENCE CHECKS FOR EQUILIBRIUM ITERATION     1


 AVERAGE FORCE                       6.93       TIME AVG. FORCE        4.30    
 LARGEST RESIDUAL FORCE            -1.347E-03   AT NODE          3   DOF  1
 LARGEST INCREMENT OF DISP.         1.000E-02   AT NODE          3   DOF  2
 LARGEST CORRECTION TO DISP.        9.263E-05   AT NODE          2   DOF  1
          THE FORCE     EQUILIBRIUM EQUATIONS HAVE CONVERGED

 COMPATIBILITY ERRORS:
    TYPE                NUMBER EXCEEDING TOLERANCE  MAXIMUM ERROR        IN ELEMENT
 VOLUMETRIC                          1                7.285E-05                  1

  NUMBER OF EQUATIONS =       25     NUMBER OF FLOATING PT. OPERATIONS =  5.52E+03

     CHECK POINT   START OF SOLVER    

     CHECK POINT  END OF SOLVER       

       ELAPSED USER TIME (SEC)      =   0.0000    
       ELAPSED SYSTEM TIME (SEC)    =   0.0000    
       ELAPSED TOTAL CPU TIME (SEC) =   0.0000    
       ELAPSED WALLCLOCK TIME (SEC) =          0

               CONVERGENCE CHECKS FOR EQUILIBRIUM ITERATION     2


 AVERAGE FORCE                       6.94       TIME AVG. FORCE        4.30    
 LARGEST RESIDUAL FORCE             3.975E-04   AT NODE          6   DOF  3
 LARGEST INCREMENT OF DISP.         1.000E-02   AT NODE          3   DOF  2
 LARGEST CORRECTION TO DISP.       -2.722E-05   AT NODE          8   DOF  3
          THE FORCE     EQUILIBRIUM EQUATIONS HAVE CONVERGED

 COMPATIBILITY ERRORS:
    TYPE                NUMBER EXCEEDING TOLERANCE  MAXIMUM ERROR        IN ELEMENT
 VOLUMETRIC                          1               -2.138E-05                  1

  NUMBER OF EQUATIONS =       25     NUMBER OF FLOATING PT. OPERATIONS =  5.52E+03

     CHECK POINT   START OF SOLVER    

     CHECK POINT  END OF SOLVER       

       ELAPSED USER TIME (SEC)      =   0.0000    
       ELAPSED SYSTEM TIME (SEC)    =   0.0000    
       ELAPSED TOTAL CPU TIME (SEC) =   0.0000    
       ELAPSED WALLCLOCK TIME (SEC) =          0

               CONVERGENCE CHECKS FOR EQUILIBRIUM ITERATION     3


 AVERAGE FORCE                       6.93       TIME AVG. FORCE        4.30    
 LARGEST RESIDUAL FORCE            -1.166E-04   AT NODE          6   DOF  3
 LARGEST INCREMENT OF DISP.         1.000E-02   AT NODE          3   DOF  2
 LARGEST CORRECTION TO DISP.        7.992E-06   AT NODE          6   DOF  3
          THE FORCE     EQUILIBRIUM EQUATIONS HAVE CONVERGED

 COMPATIBILITY ERRORS:
    TYPE                NUMBER EXCEEDING TOLERANCE  MAXIMUM ERROR        IN ELEMENT
 VOLUMETRIC                          0                6.280E-06                  1
          TIME INCREMENT MAY NOW INCREASE TO    0.100    
          TIME INCREMENT REDUCED TO   2.000E-02 TO MEET NEXT OUTPUT TIME POINT

 ITERATION SUMMARY FOR THE INCREMENT:   3 TOTAL ITERATIONS, OF WHICH
   0 ARE SEVERE DISCONTINUITY ITERATIONS AND  3 ARE EQUILIBRIUM ITERATIONS.

 TIME INCREMENT COMPLETED  2.000E-02,  FRACTION OF STEP COMPLETED  8.000E-02
 STEP TIME COMPLETED       8.000E-02,  TOTAL TIME COMPLETED        8.000E-02


  INCREMENT     5 STARTS. ATTEMPT NUMBER  1, TIME INCREMENT  2.000E-02

  NUMBER OF EQUATIONS =       25     NUMBER OF FLOATING PT. OPERATIONS =  5.52E+03

     CHECK POINT   START OF SOLVER    

     CHECK POINT  END OF SOLVER       

       ELAPSED USER TIME (SEC)      =   0.0000    
       ELAPSED SYSTEM TIME (SEC)    =   0.0000    
       ELAPSED TOTAL CPU TIME (SEC) =   0.0000    
       ELAPSED WALLCLOCK TIME (SEC) =          0

               CONVERGENCE CHECKS FOR EQUILIBRIUM ITERATION     1


 AVERAGE FORCE                       8.71       TIME AVG. FORCE        5.18    
 LARGEST RESIDUAL FORCE            -1.617E-03   AT NODE          6   DOF  1
 LARGEST INCREMENT OF DISP.         1.000E-02   AT NODE          3   DOF  2
 LARGEST CORRECTION TO DISP.        8.743E-05   AT NODE          6   DOF  1
          THE FORCE     EQUILIBRIUM EQUATIONS HAVE CONVERGED

 COMPATIBILITY ERRORS:
    TYPE                NUMBER EXCEEDING TOLERANCE  MAXIMUM ERROR        IN ELEMENT
 VOLUMETRIC                          1                6.809E-05                  1

  NUMBER OF EQUATIONS =       25     NUMBER OF FLOATING PT. OPERATIONS =  5.52E+03

     CHECK POINT   START OF SOLVER    

     CHECK POINT  END OF SOLVER       

       ELAPSED USER TIME (SEC)      =   0.0000    
       ELAPSED SYSTEM TIME (SEC)    =   0.0000    
       ELAPSED TOTAL CPU TIME (SEC) =   0.0000    
       ELAPSED WALLCLOCK TIME (SEC) =          0

               CONVERGENCE CHECKS FOR EQUILIBRIUM ITERATION     2


 AVERAGE FORCE                       8.71       TIME AVG. FORCE        5.18    
 LARGEST RESIDUAL FORCE             4.787E-04   AT NODE          5   DOF  3
 LARGEST INCREMENT OF DISP.         1.000E-02   AT NODE          3   DOF  2
 LARGEST CORRECTION TO DISP.       -2.580E-05   AT NODE          6   DOF  3
          THE FORCE     EQUILIBRIUM EQUATIONS HAVE CONVERGED

 COMPATIBILITY ERRORS:
    TYPE                NUMBER EXCEEDING TOLERANCE  MAXIMUM ERROR        IN ELEMENT
 VOLUMETRIC                          1               -2.007E-05                  1

  NUMBER OF EQUATIONS =       25     NUMBER OF FLOATING PT. OPERATIONS =  5.52E+03

     CHECK POINT   START OF SOLVER    

     CHECK POINT  END OF SOLVER       

       ELAPSED USER TIME (SEC)      =   0.0000    
       ELAPSED SYSTEM TIME (SEC)    =   0.0000    
       ELAPSED TOTAL CPU TIME (SEC) =   0.0000    
       ELAPSED WALLCLOCK TIME (SEC) =          0

               CONVERGENCE CHECKS FOR EQUILIBRIUM ITERATION     3


 AVERAGE FORCE                       8.71       TIME AVG. FORCE        5.18    
 LARGEST RESIDUAL FORCE            -1.410E-04   AT NODE          8   DOF  3
 LARGEST INCREMENT OF DISP.         1.000E-02   AT NODE          3   DOF  2
 LARGEST CORRECTION TO DISP.        7.605E-06   AT NODE          8   DOF  3
          THE FORCE     EQUILIBRIUM EQUATIONS HAVE CONVERGED

 COMPATIBILITY ERRORS:
    TYPE                NUMBER EXCEEDING TOLERANCE  MAXIMUM ERROR        IN ELEMENT
 VOLUMETRIC                          0                5.918E-06                  1
          TIME INCREMENT MAY NOW INCREASE TO    0.100    
          TIME INCREMENT REDUCED TO   2.000E-02 TO MEET NEXT OUTPUT TIME POINT

 ITERATION SUMMARY FOR THE INCREMENT:   3 TOTAL ITERATIONS, OF WHICH
   0 ARE SEVERE DISCONTINUITY ITERATIONS AND  3 ARE EQUILIBRIUM ITERATIONS.

 TIME INCREMENT COMPLETED  2.000E-02,  FRACTION OF STEP COMPLETED  0.100    
 STEP TIME COMPLETED       0.100    ,  TOTAL TIME COMPLETED        0.100    


  INCREMENT     6 STARTS. ATTEMPT NUMBER  1, TIME INCREMENT  2.000E-02

  NUMBER OF EQUATIONS =       25     NUMBER OF FLOATING PT. OPERATIONS =  5.52E+03

     CHECK POINT   START OF SOLVER    

     CHECK POINT  END OF SOLVER       

       ELAPSED USER TIME (SEC)      =   0.0000    
       ELAPSED SYSTEM TIME (SEC)    =   0.0000    
       ELAPSED TOTAL CPU TIME (SEC) =   0.0000    
       ELAPSED WALLCLOCK TIME (SEC) =          0

               CONVERGENCE CHECKS FOR EQUILIBRIUM ITERATION     1


 AVERAGE FORCE                       10.5       TIME AVG. FORCE        6.06    
 LARGEST RESIDUAL FORCE            -1.880E-03   AT NODE          7   DOF  3
 LARGEST INCREMENT OF DISP.         1.000E-02   AT NODE          3   DOF  2
 LARGEST CORRECTION TO DISP.        8.326E-05   AT NODE          7   DOF  3
          THE FORCE     EQUILIBRIUM EQUATIONS HAVE CONVERGED

 COMPATIBILITY ERRORS:
    TYPE                NUMBER EXCEEDING TOLERANCE  MAXIMUM ERROR        IN ELEMENT
 VOLUMETRIC                          1                6.418E-05                  1

  NUMBER OF EQUATIONS =       25     NUMBER OF FLOATING PT. OPERATIONS =  5.52E+03

     CHECK POINT   START OF SOLVER    

     CHECK POINT  END OF SOLVER       

       ELAPSED USER TIME (SEC)      =   0.0000    
       ELAPSED SYSTEM TIME (SEC)    =   0.0000    
       ELAPSED TOTAL CPU TIME (SEC) =   0.0000    
       ELAPSED WALLCLOCK TIME (SEC) =          0

               CONVERGENCE CHECKS FOR EQUILIBRIUM ITERATION     2


 AVERAGE FORCE                       10.5       TIME AVG. FORCE        6.06    
 LARGEST RESIDUAL FORCE             5.581E-04   AT NODE          7   DOF  3
 LARGEST INCREMENT OF DISP.         1.000E-02   AT NODE          3   DOF  2
 LARGEST CORRECTION TO DISP.       -2.466E-05   AT NODE          7   DOF  3
          THE FORCE     EQUILIBRIUM EQUATIONS HAVE CONVERGED

 COMPATIBILITY ERRORS:
    TYPE                NUMBER EXCEEDING TOLERANCE  MAXIMUM ERROR        IN ELEMENT
 VOLUMETRIC                          1               -1.899E-05                  1

  NUMBER OF EQUATIONS =       25     NUMBER OF FLOATING PT. OPERATIONS =  5.52E+03

     CHECK POINT   START OF SOLVER    

     CHECK POINT  END OF SOLVER       

       ELAPSED USER TIME (SEC)      =   0.0000    
       ELAPSED SYSTEM TIME (SEC)    =   0.0000    
       ELAPSED TOTAL CPU TIME (SEC) =   0.0000    
       ELAPSED WALLCLOCK TIME (SEC) =          0

               CONVERGENCE CHECKS FOR EQUILIBRIUM ITERATION     3


 AVERAGE FORCE                       10.5       TIME AVG. FORCE        6.06    
 LARGEST RESIDUAL FORCE            -1.650E-04   AT NODE          8   DOF  3
 LARGEST INCREMENT OF DISP.         1.000E-02   AT NODE          3   DOF  2
 LARGEST CORRECTION TO DISP.        7.297E-06   AT NODE          7   DOF  3
          THE FORCE     EQUILIBRIUM EQUATIONS HAVE CONVERGED

 COMPATIBILITY ERRORS:
    TYPE                NUMBER EXCEEDING TOLERANCE  MAXIMUM ERROR        IN ELEMENT
 VOLUMETRIC                          0                5.620E-06                  1
          TIME INCREMENT MAY NOW INCREASE TO    0.100    
          TIME INCREMENT REDUCED TO   2.000E-02 TO MEET NEXT OUTPUT TIME POINT

 ITERATION SUMMARY FOR THE INCREMENT:   3 TOTAL ITERATIONS, OF WHICH
   0 ARE SEVERE DISCONTINUITY ITERATIONS AND  3 ARE EQUILIBRIUM ITERATIONS.

 TIME INCREMENT COMPLETED  2.000E-02,  FRACTION OF STEP COMPLETED  0.120    
 STEP TIME COMPLETED       0.120    ,  TOTAL TIME COMPLETED        0.120    


  INCREMENT     7 STARTS. ATTEMPT NUMBER  1, TIME INCREMENT  2.000E-02

  NUMBER OF EQUATIONS =       25     NUMBER OF FLOATING PT. OPERATIONS =  5.52E+03

     CHECK POINT   START OF SOLVER    

     CHECK POINT  END OF SOLVER       

       ELAPSED USER TIME (SEC)      =   0.0000    
       ELAPSED SYSTEM TIME (SEC)    =   0.0000    
       ELAPSED TOTAL CPU TIME (SEC) =   0.0000    
       ELAPSED WALLCLOCK TIME (SEC) =          0

               CONVERGENCE CHECKS FOR EQUILIBRIUM ITERATION     1


 AVERAGE FORCE                       12.3       TIME AVG. FORCE        6.95    
 LARGEST RESIDUAL FORCE            -2.118E-03   AT NODE          8   DOF  3
 LARGEST INCREMENT OF DISP.         1.000E-02   AT NODE          3   DOF  2
 LARGEST CORRECTION TO DISP.        7.913E-05   AT NODE          2   DOF  1
          THE FORCE     EQUILIBRIUM EQUATIONS HAVE CONVERGED

 COMPATIBILITY ERRORS:
    TYPE                NUMBER EXCEEDING TOLERANCE  MAXIMUM ERROR        IN ELEMENT
 VOLUMETRIC                          1                6.034E-05                  1

  NUMBER OF EQUATIONS =       25     NUMBER OF FLOATING PT. OPERATIONS =  5.52E+03

     CHECK POINT   START OF SOLVER    

     CHECK POINT  END OF SOLVER       

       ELAPSED USER TIME (SEC)      =   0.0000    
       ELAPSED SYSTEM TIME (SEC)    =   0.0000    
       ELAPSED TOTAL CPU TIME (SEC) =   0.0000    
       ELAPSED WALLCLOCK TIME (SEC) =          0

               CONVERGENCE CHECKS FOR EQUILIBRIUM ITERATION     2


 AVERAGE FORCE                       12.3       TIME AVG. FORCE        6.96    
 LARGEST RESIDUAL FORCE             6.309E-04   AT NODE          5   DOF  3
 LARGEST INCREMENT OF DISP.         1.000E-02   AT NODE          3   DOF  2
 LARGEST CORRECTION TO DISP.       -2.351E-05   AT NODE          7   DOF  1
          THE FORCE     EQUILIBRIUM EQUATIONS HAVE CONVERGED

 COMPATIBILITY ERRORS:
    TYPE                NUMBER EXCEEDING TOLERANCE  MAXIMUM ERROR        IN ELEMENT
 VOLUMETRIC                          1               -1.791E-05                  1

  NUMBER OF EQUATIONS =       25     NUMBER OF FLOATING PT. OPERATIONS =  5.52E+03

     CHECK POINT   START OF SOLVER    

     CHECK POINT  END OF SOLVER       

       ELAPSED USER TIME (SEC)      =   0.0000    
       ELAPSED SYSTEM TIME (SEC)    =  0.10000    
       ELAPSED TOTAL CPU TIME (SEC) =  0.10000    
       ELAPSED WALLCLOCK TIME (SEC) =          0

               CONVERGENCE CHECKS FOR EQUILIBRIUM ITERATION     3


 AVERAGE FORCE                       12.3       TIME AVG. FORCE        6.95    
 LARGEST RESIDUAL FORCE            -1.872E-04   AT NODE          5   DOF  3
 LARGEST INCREMENT OF DISP.         1.000E-02   AT NODE          3   DOF  2
 LARGEST CORRECTION TO DISP.        6.982E-06   AT NODE          5   DOF  3
          THE FORCE     EQUILIBRIUM EQUATIONS HAVE CONVERGED

 COMPATIBILITY ERRORS:
    TYPE                NUMBER EXCEEDING TOLERANCE  MAXIMUM ERROR        IN ELEMENT
 VOLUMETRIC                          0                5.320E-06                  1
          TIME INCREMENT MAY NOW INCREASE TO    0.100    
          TIME INCREMENT REDUCED TO   2.000E-02 TO MEET NEXT OUTPUT TIME POINT

 ITERATION SUMMARY FOR THE INCREMENT:   3 TOTAL ITERATIONS, OF WHICH
   0 ARE SEVERE DISCONTINUITY ITERATIONS AND  3 ARE EQUILIBRIUM ITERATIONS.

 TIME INCREMENT COMPLETED  2.000E-02,  FRACTION OF STEP COMPLETED  0.140    
 STEP TIME COMPLETED       0.140    ,  TOTAL TIME COMPLETED        0.140    


  INCREMENT     8 STARTS. ATTEMPT NUMBER  1, TIME INCREMENT  2.000E-02

  NUMBER OF EQUATIONS =       25     NUMBER OF FLOATING PT. OPERATIONS =  5.52E+03

     CHECK POINT   START OF SOLVER    

     CHECK POINT  END OF SOLVER       

       ELAPSED USER TIME (SEC)      =   0.0000    
       ELAPSED SYSTEM TIME (SEC)    =   0.0000    
       ELAPSED TOTAL CPU TIME (SEC) =   0.0000    
       ELAPSED WALLCLOCK TIME (SEC) =          0

               CONVERGENCE CHECKS FOR EQUILIBRIUM ITERATION     1


 AVERAGE FORCE                       14.1       TIME AVG. FORCE        7.85    
 LARGEST RESIDUAL FORCE            -2.339E-03   AT NODE          7   DOF  3
 LARGEST INCREMENT OF DISP.         1.000E-02   AT NODE          3   DOF  2
 LARGEST CORRECTION TO DISP.        7.525E-05   AT NODE          2   DOF  1
          THE FORCE     EQUILIBRIUM EQUATIONS HAVE CONVERGED

 COMPATIBILITY ERRORS:
    TYPE                NUMBER EXCEEDING TOLERANCE  MAXIMUM ERROR        IN ELEMENT
 VOLUMETRIC                          1                5.674E-05                  1

  NUMBER OF EQUATIONS =       25     NUMBER OF FLOATING PT. OPERATIONS =  5.52E+03

     CHECK POINT   START OF SOLVER    

     CHECK POINT  END OF SOLVER       

       ELAPSED USER TIME (SEC)      =   0.0000    
       ELAPSED SYSTEM TIME (SEC)    =   0.0000    
       ELAPSED TOTAL CPU TIME (SEC) =   0.0000    
       ELAPSED WALLCLOCK TIME (SEC) =          0

               CONVERGENCE CHECKS FOR EQUILIBRIUM ITERATION     2


 AVERAGE FORCE                       14.1       TIME AVG. FORCE        7.85    
 LARGEST RESIDUAL FORCE             6.986E-04   AT NODE          5   DOF  3
 LARGEST INCREMENT OF DISP.         1.000E-02   AT NODE          3   DOF  2
 LARGEST CORRECTION TO DISP.       -2.243E-05   AT NODE          7   DOF  3
          THE FORCE     EQUILIBRIUM EQUATIONS HAVE CONVERGED

 COMPATIBILITY ERRORS:
    TYPE                NUMBER EXCEEDING TOLERANCE  MAXIMUM ERROR        IN ELEMENT
 VOLUMETRIC                          1               -1.689E-05                  1

  NUMBER OF EQUATIONS =       25     NUMBER OF FLOATING PT. OPERATIONS =  5.52E+03

     CHECK POINT   START OF SOLVER    

     CHECK POINT  END OF SOLVER       

       ELAPSED USER TIME (SEC)      =   0.0000    
       ELAPSED SYSTEM TIME (SEC)    =   0.0000    
       ELAPSED TOTAL CPU TIME (SEC) =   0.0000    
       ELAPSED WALLCLOCK TIME (SEC) =          0

               CONVERGENCE CHECKS FOR EQUILIBRIUM ITERATION     3


 AVERAGE FORCE                       42.3       TIME AVG. FORCE        11.4    
 LARGEST RESIDUAL FORCE            -2.079E-04   AT NODE          8   DOF  3
 LARGEST INCREMENT OF DISP.         1.000E-02   AT NODE          3   DOF  2
 LARGEST CORRECTION TO DISP.        6.681E-06   AT NODE          5   DOF  3
          THE FORCE     EQUILIBRIUM EQUATIONS HAVE CONVERGED

 COMPATIBILITY ERRORS:
    TYPE                NUMBER EXCEEDING TOLERANCE  MAXIMUM ERROR        IN ELEMENT
 VOLUMETRIC                          0                5.033E-06                  1
          TIME INCREMENT MAY NOW INCREASE TO    0.100    
          TIME INCREMENT REDUCED TO   2.000E-02 TO MEET NEXT OUTPUT TIME POINT

 ITERATION SUMMARY FOR THE INCREMENT:   3 TOTAL ITERATIONS, OF WHICH
   0 ARE SEVERE DISCONTINUITY ITERATIONS AND  3 ARE EQUILIBRIUM ITERATIONS.

 TIME INCREMENT COMPLETED  2.000E-02,  FRACTION OF STEP COMPLETED  0.160    
 STEP TIME COMPLETED       0.160    ,  TOTAL TIME COMPLETED        0.160    


  INCREMENT     9 STARTS. ATTEMPT NUMBER  1, TIME INCREMENT  2.000E-02

  NUMBER OF EQUATIONS =       25     NUMBER OF FLOATING PT. OPERATIONS =  5.52E+03

     CHECK POINT   START OF SOLVER    

     CHECK POINT  END OF SOLVER       

       ELAPSED USER TIME (SEC)      =   0.0000    
       ELAPSED SYSTEM TIME (SEC)    =   0.0000    
       ELAPSED TOTAL CPU TIME (SEC) =   0.0000    
       ELAPSED WALLCLOCK TIME (SEC) =          0

               CONVERGENCE CHECKS FOR EQUILIBRIUM ITERATION     1


 AVERAGE FORCE                       15.9       TIME AVG. FORCE        11.9    
 LARGEST RESIDUAL FORCE            -2.543E-03   AT NODE          3   DOF  1
 LARGEST INCREMENT OF DISP.         1.000E-02   AT NODE          3   DOF  2
 LARGEST CORRECTION TO DISP.        7.157E-05   AT NODE          6   DOF  3
          THE FORCE     EQUILIBRIUM EQUATIONS HAVE CONVERGED

 COMPATIBILITY ERRORS:
    TYPE                NUMBER EXCEEDING TOLERANCE  MAXIMUM ERROR        IN ELEMENT
 VOLUMETRIC                          1                5.334E-05                  1

  NUMBER OF EQUATIONS =       25     NUMBER OF FLOATING PT. OPERATIONS =  5.52E+03

     CHECK POINT   START OF SOLVER    

     CHECK POINT  END OF SOLVER       

       ELAPSED USER TIME (SEC)      =   0.0000    
       ELAPSED SYSTEM TIME (SEC)    =   0.0000    
       ELAPSED TOTAL CPU TIME (SEC) =   0.0000    
       ELAPSED WALLCLOCK TIME (SEC) =          0

               CONVERGENCE CHECKS FOR EQUILIBRIUM ITERATION     2


 AVERAGE FORCE                       15.9       TIME AVG. FORCE        11.9    
 LARGEST RESIDUAL FORCE             7.612E-04   AT NODE          2   DOF  1
 LARGEST INCREMENT OF DISP.         1.000E-02   AT NODE          3   DOF  2
 LARGEST CORRECTION TO DISP.       -2.139E-05   AT NODE          3   DOF  1
          THE FORCE     EQUILIBRIUM EQUATIONS HAVE CONVERGED

 COMPATIBILITY ERRORS:
    TYPE                NUMBER EXCEEDING TOLERANCE  MAXIMUM ERROR        IN ELEMENT
 VOLUMETRIC                          1               -1.593E-05                  1

  NUMBER OF EQUATIONS =       25     NUMBER OF FLOATING PT. OPERATIONS =  5.52E+03

     CHECK POINT   START OF SOLVER    

     CHECK POINT  END OF SOLVER       

       ELAPSED USER TIME (SEC)      =   0.0000    
       ELAPSED SYSTEM TIME (SEC)    =   0.0000    
       ELAPSED TOTAL CPU TIME (SEC) =   0.0000    
       ELAPSED WALLCLOCK TIME (SEC) =          0

               CONVERGENCE CHECKS FOR EQUILIBRIUM ITERATION     3


 AVERAGE FORCE                       47.8       TIME AVG. FORCE        15.4    
 LARGEST RESIDUAL FORCE            -2.272E-04   AT NODE          7   DOF  3
 LARGEST INCREMENT OF DISP.         1.000E-02   AT NODE          3   DOF  2
 LARGEST CORRECTION TO DISP.        6.390E-06   AT NODE          2   DOF  1
          THE FORCE     EQUILIBRIUM EQUATIONS HAVE CONVERGED

 COMPATIBILITY ERRORS:
    TYPE                NUMBER EXCEEDING TOLERANCE  MAXIMUM ERROR        IN ELEMENT
 VOLUMETRIC                          0                4.759E-06                  1
          TIME INCREMENT MAY NOW INCREASE TO    0.100    
          TIME INCREMENT REDUCED TO   2.000E-02 TO MEET NEXT OUTPUT TIME POINT

 ITERATION SUMMARY FOR THE INCREMENT:   3 TOTAL ITERATIONS, OF WHICH
   0 ARE SEVERE DISCONTINUITY ITERATIONS AND  3 ARE EQUILIBRIUM ITERATIONS.

 TIME INCREMENT COMPLETED  2.000E-02,  FRACTION OF STEP COMPLETED  0.180    
 STEP TIME COMPLETED       0.180    ,  TOTAL TIME COMPLETED        0.180    


  INCREMENT    10 STARTS. ATTEMPT NUMBER  1, TIME INCREMENT  2.000E-02

  NUMBER OF EQUATIONS =       25     NUMBER OF FLOATING PT. OPERATIONS =  5.52E+03

     CHECK POINT   START OF SOLVER    

     CHECK POINT  END OF SOLVER       

       ELAPSED USER TIME (SEC)      =   0.0000    
       ELAPSED SYSTEM TIME (SEC)    =   0.0000    
       ELAPSED TOTAL CPU TIME (SEC) =   0.0000    
       ELAPSED WALLCLOCK TIME (SEC) =          0

               CONVERGENCE CHECKS FOR EQUILIBRIUM ITERATION     1


 AVERAGE FORCE                       17.8       TIME AVG. FORCE        15.7    
 LARGEST RESIDUAL FORCE            -2.730E-03   AT NODE          3   DOF  1
 LARGEST INCREMENT OF DISP.         1.000E-02   AT NODE          3   DOF  2
 LARGEST CORRECTION TO DISP.        6.810E-05   AT NODE          5   DOF  3
          THE FORCE     EQUILIBRIUM EQUATIONS HAVE CONVERGED

 COMPATIBILITY ERRORS:
    TYPE                NUMBER EXCEEDING TOLERANCE  MAXIMUM ERROR        IN ELEMENT
 VOLUMETRIC                          1                5.014E-05                  1

  NUMBER OF EQUATIONS =       25     NUMBER OF FLOATING PT. OPERATIONS =  5.52E+03

     CHECK POINT   START OF SOLVER    

     CHECK POINT  END OF SOLVER       

       ELAPSED USER TIME (SEC)      =   0.0000    
       ELAPSED SYSTEM TIME (SEC)    =  0.10000    
       ELAPSED TOTAL CPU TIME (SEC) =  0.10000    
       ELAPSED WALLCLOCK TIME (SEC) =          0

               CONVERGENCE CHECKS FOR EQUILIBRIUM ITERATION     2


 AVERAGE FORCE                       17.8       TIME AVG. FORCE        15.7    
 LARGEST RESIDUAL FORCE             8.190E-04   AT NODE          7   DOF  1
 LARGEST INCREMENT OF DISP.         1.000E-02   AT NODE          3   DOF  2
 LARGEST CORRECTION TO DISP.       -2.040E-05   AT NODE          2   DOF  1
          THE FORCE     EQUILIBRIUM EQUATIONS HAVE CONVERGED

 COMPATIBILITY ERRORS:
    TYPE                NUMBER EXCEEDING TOLERANCE  MAXIMUM ERROR        IN ELEMENT
 VOLUMETRIC                          1               -1.501E-05                  1

  NUMBER OF EQUATIONS =       25     NUMBER OF FLOATING PT. OPERATIONS =  5.52E+03

     CHECK POINT   START OF SOLVER    

     CHECK POINT  END OF SOLVER       

       ELAPSED USER TIME (SEC)      =   0.0000    
       ELAPSED SYSTEM TIME (SEC)    =   0.0000    
       ELAPSED TOTAL CPU TIME (SEC) =   0.0000    
       ELAPSED WALLCLOCK TIME (SEC) =          0

               CONVERGENCE CHECKS FOR EQUILIBRIUM ITERATION     3


 AVERAGE FORCE                       53.4       TIME AVG. FORCE        19.2    
 LARGEST RESIDUAL FORCE            -2.451E-04   AT NODE          7   DOF  3
 LARGEST INCREMENT OF DISP.         1.000E-02   AT NODE          3   DOF  2
 LARGEST CORRECTION TO DISP.        6.110E-06   AT NODE          7   DOF  1
          THE FORCE     EQUILIBRIUM EQUATIONS HAVE CONVERGED

 COMPATIBILITY ERRORS:
    TYPE                NUMBER EXCEEDING TOLERANCE  MAXIMUM ERROR        IN ELEMENT
 VOLUMETRIC                          0                4.496E-06                  1
          TIME INCREMENT MAY NOW INCREASE TO    0.100    
          TIME INCREMENT REDUCED TO   2.000E-02 TO MEET NEXT OUTPUT TIME POINT

 ITERATION SUMMARY FOR THE INCREMENT:   3 TOTAL ITERATIONS, OF WHICH
   0 ARE SEVERE DISCONTINUITY ITERATIONS AND  3 ARE EQUILIBRIUM ITERATIONS.

 TIME INCREMENT COMPLETED  2.000E-02,  FRACTION OF STEP COMPLETED  0.200    
 STEP TIME COMPLETED       0.200    ,  TOTAL TIME COMPLETED        0.200    


  INCREMENT    11 STARTS. ATTEMPT NUMBER  1, TIME INCREMENT  2.000E-02

  NUMBER OF EQUATIONS =       25     NUMBER OF FLOATING PT. OPERATIONS =  5.52E+03

     CHECK POINT   START OF SOLVER    

     CHECK POINT  END OF SOLVER       

       ELAPSED USER TIME (SEC)      =   0.0000    
       ELAPSED SYSTEM TIME (SEC)    =   0.0000    
       ELAPSED TOTAL CPU TIME (SEC) =   0.0000    
       ELAPSED WALLCLOCK TIME (SEC) =          0

               CONVERGENCE CHECKS FOR EQUILIBRIUM ITERATION     1


 AVERAGE FORCE                       19.6       TIME AVG. FORCE        19.3    
 LARGEST RESIDUAL FORCE            -2.901E-03   AT NODE          2   DOF  1
 LARGEST INCREMENT OF DISP.         1.000E-02   AT NODE          3   DOF  2
 LARGEST CORRECTION TO DISP.        6.481E-05   AT NODE          6   DOF  1
          THE FORCE     EQUILIBRIUM EQUATIONS HAVE CONVERGED

 COMPATIBILITY ERRORS:
    TYPE                NUMBER EXCEEDING TOLERANCE  MAXIMUM ERROR        IN ELEMENT
 VOLUMETRIC                          1                4.713E-05                  1

  NUMBER OF EQUATIONS =       25     NUMBER OF FLOATING PT. OPERATIONS =  5.52E+03

     CHECK POINT   START OF SOLVER    

     CHECK POINT  END OF SOLVER       

       ELAPSED USER TIME (SEC)      =   0.0000    
       ELAPSED SYSTEM TIME (SEC)    =   0.0000    
       ELAPSED TOTAL CPU TIME (SEC) =   0.0000    
       ELAPSED WALLCLOCK TIME (SEC) =          0

               CONVERGENCE CHECKS FOR EQUILIBRIUM ITERATION     2


 AVERAGE FORCE                       19.6       TIME AVG. FORCE        19.3    
 LARGEST RESIDUAL FORCE             8.722E-04   AT NODE          6   DOF  3
 LARGEST INCREMENT OF DISP.         1.000E-02   AT NODE          3   DOF  2
 LARGEST CORRECTION TO DISP.       -1.946E-05   AT NODE          2   DOF  1
          THE FORCE     EQUILIBRIUM EQUATIONS HAVE CONVERGED

 COMPATIBILITY ERRORS:
    TYPE                NUMBER EXCEEDING TOLERANCE  MAXIMUM ERROR        IN ELEMENT
 VOLUMETRIC                          1               -1.414E-05                  1

  NUMBER OF EQUATIONS =       25     NUMBER OF FLOATING PT. OPERATIONS =  5.52E+03

     CHECK POINT   START OF SOLVER    

     CHECK POINT  END OF SOLVER       

       ELAPSED USER TIME (SEC)      =   0.0000    
       ELAPSED SYSTEM TIME (SEC)    =   0.0000    
       ELAPSED TOTAL CPU TIME (SEC) =   0.0000    
       ELAPSED WALLCLOCK TIME (SEC) =          0

               CONVERGENCE CHECKS FOR EQUILIBRIUM ITERATION     3


 AVERAGE FORCE                       58.9       TIME AVG. FORCE        22.8    
 LARGEST RESIDUAL FORCE            -2.617E-04   AT NODE          8   DOF  3
 LARGEST INCREMENT OF DISP.         1.000E-02   AT NODE          3   DOF  2
 LARGEST CORRECTION TO DISP.        5.842E-06   AT NODE          6   DOF  3
          THE FORCE     EQUILIBRIUM EQUATIONS HAVE CONVERGED

 COMPATIBILITY ERRORS:
    TYPE                NUMBER EXCEEDING TOLERANCE  MAXIMUM ERROR        IN ELEMENT
 VOLUMETRIC                          0                4.245E-06                  1
          TIME INCREMENT MAY NOW INCREASE TO    0.100    
          TIME INCREMENT REDUCED TO   2.000E-02 TO MEET NEXT OUTPUT TIME POINT

 ITERATION SUMMARY FOR THE INCREMENT:   3 TOTAL ITERATIONS, OF WHICH
   0 ARE SEVERE DISCONTINUITY ITERATIONS AND  3 ARE EQUILIBRIUM ITERATIONS.

 TIME INCREMENT COMPLETED  2.000E-02,  FRACTION OF STEP COMPLETED  0.220    
 STEP TIME COMPLETED       0.220    ,  TOTAL TIME COMPLETED        0.220    


  INCREMENT    12 STARTS. ATTEMPT NUMBER  1, TIME INCREMENT  2.000E-02

  NUMBER OF EQUATIONS =       25     NUMBER OF FLOATING PT. OPERATIONS =  5.52E+03

     CHECK POINT   START OF SOLVER    

     CHECK POINT  END OF SOLVER       

       ELAPSED USER TIME (SEC)      =   0.0000    
       ELAPSED SYSTEM TIME (SEC)    =   0.0000    
       ELAPSED TOTAL CPU TIME (SEC) =   0.0000    
       ELAPSED WALLCLOCK TIME (SEC) =          0

               CONVERGENCE CHECKS FOR EQUILIBRIUM ITERATION     1


 AVERAGE FORCE                       21.5       TIME AVG. FORCE        22.7    
 LARGEST RESIDUAL FORCE            -3.057E-03   AT NODE          3   DOF  1
 LARGEST INCREMENT OF DISP.         1.000E-02   AT NODE          3   DOF  2
 LARGEST CORRECTION TO DISP.        6.170E-05   AT NODE          7   DOF  1
          THE FORCE     EQUILIBRIUM EQUATIONS HAVE CONVERGED

 COMPATIBILITY ERRORS:
    TYPE                NUMBER EXCEEDING TOLERANCE  MAXIMUM ERROR        IN ELEMENT
 VOLUMETRIC                          1                4.429E-05                  1

  NUMBER OF EQUATIONS =       25     NUMBER OF FLOATING PT. OPERATIONS =  5.52E+03

     CHECK POINT   START OF SOLVER    

     CHECK POINT  END OF SOLVER       

       ELAPSED USER TIME (SEC)      =   0.0000    
       ELAPSED SYSTEM TIME (SEC)    =   0.0000    
       ELAPSED TOTAL CPU TIME (SEC) =   0.0000    
       ELAPSED WALLCLOCK TIME (SEC) =          0

               CONVERGENCE CHECKS FOR EQUILIBRIUM ITERATION     2


 AVERAGE FORCE                       21.5       TIME AVG. FORCE        22.7    
 LARGEST RESIDUAL FORCE             9.210E-04   AT NODE          7   DOF  1
 LARGEST INCREMENT OF DISP.         1.000E-02   AT NODE          3   DOF  2
 LARGEST CORRECTION TO DISP.       -1.857E-05   AT NODE          6   DOF  1
          THE FORCE     EQUILIBRIUM EQUATIONS HAVE CONVERGED

 COMPATIBILITY ERRORS:
    TYPE                NUMBER EXCEEDING TOLERANCE  MAXIMUM ERROR        IN ELEMENT
 VOLUMETRIC                          1               -1.332E-05                  1

  NUMBER OF EQUATIONS =       25     NUMBER OF FLOATING PT. OPERATIONS =  5.52E+03

     CHECK POINT   START OF SOLVER    

     CHECK POINT  END OF SOLVER       

       ELAPSED USER TIME (SEC)      =   0.0000    
       ELAPSED SYSTEM TIME (SEC)    =   0.0000    
       ELAPSED TOTAL CPU TIME (SEC) =   0.0000    
       ELAPSED WALLCLOCK TIME (SEC) =          0

               CONVERGENCE CHECKS FOR EQUILIBRIUM ITERATION     3


 AVERAGE FORCE                       64.6       TIME AVG. FORCE        26.3    
 LARGEST RESIDUAL FORCE            -2.769E-04   AT NODE          7   DOF  1
 LARGEST INCREMENT OF DISP.         1.000E-02   AT NODE          3   DOF  2
 LARGEST CORRECTION TO DISP.        5.584E-06   AT NODE          7   DOF  1
          THE FORCE     EQUILIBRIUM EQUATIONS HAVE CONVERGED

 COMPATIBILITY ERRORS:
    TYPE                NUMBER EXCEEDING TOLERANCE  MAXIMUM ERROR        IN ELEMENT
 VOLUMETRIC                          0                4.006E-06                  1
          TIME INCREMENT MAY NOW INCREASE TO    0.100    
          TIME INCREMENT REDUCED TO   2.000E-02 TO MEET NEXT OUTPUT TIME POINT

 ITERATION SUMMARY FOR THE INCREMENT:   3 TOTAL ITERATIONS, OF WHICH
   0 ARE SEVERE DISCONTINUITY ITERATIONS AND  3 ARE EQUILIBRIUM ITERATIONS.

 TIME INCREMENT COMPLETED  2.000E-02,  FRACTION OF STEP COMPLETED  0.240    
 STEP TIME COMPLETED       0.240    ,  TOTAL TIME COMPLETED        0.240    


  INCREMENT    13 STARTS. ATTEMPT NUMBER  1, TIME INCREMENT  2.000E-02

  NUMBER OF EQUATIONS =       25     NUMBER OF FLOATING PT. OPERATIONS =  5.52E+03

     CHECK POINT   START OF SOLVER    

     CHECK POINT  END OF SOLVER       

       ELAPSED USER TIME (SEC)      =   0.0000    
       ELAPSED SYSTEM TIME (SEC)    =   0.0000    
       ELAPSED TOTAL CPU TIME (SEC) =   0.0000    
       ELAPSED WALLCLOCK TIME (SEC) =          0

               CONVERGENCE CHECKS FOR EQUILIBRIUM ITERATION     1


 AVERAGE FORCE                       23.4       TIME AVG. FORCE        26.1    
 LARGEST RESIDUAL FORCE            -3.200E-03   AT NODE          3   DOF  1
 LARGEST INCREMENT OF DISP.         1.000E-02   AT NODE          3   DOF  2
 LARGEST CORRECTION TO DISP.        5.876E-05   AT NODE          3   DOF  1
          THE FORCE     EQUILIBRIUM EQUATIONS HAVE CONVERGED

 COMPATIBILITY ERRORS:
    TYPE                NUMBER EXCEEDING TOLERANCE  MAXIMUM ERROR        IN ELEMENT
 VOLUMETRIC                          1                4.163E-05                  1

  NUMBER OF EQUATIONS =       25     NUMBER OF FLOATING PT. OPERATIONS =  5.52E+03

     CHECK POINT   START OF SOLVER    

     CHECK POINT  END OF SOLVER       

       ELAPSED USER TIME (SEC)      =   0.0000    
       ELAPSED SYSTEM TIME (SEC)    =   0.0000    
       ELAPSED TOTAL CPU TIME (SEC) =   0.0000    
       ELAPSED WALLCLOCK TIME (SEC) =          0

               CONVERGENCE CHECKS FOR EQUILIBRIUM ITERATION     2


 AVERAGE FORCE                       23.4       TIME AVG. FORCE        26.1    
 LARGEST RESIDUAL FORCE             9.657E-04   AT NODE          8   DOF  3
 LARGEST INCREMENT OF DISP.         1.000E-02   AT NODE          3   DOF  2
 LARGEST CORRECTION TO DISP.       -1.771E-05   AT NODE          8   DOF  3
          THE FORCE     EQUILIBRIUM EQUATIONS HAVE CONVERGED

 COMPATIBILITY ERRORS:
    TYPE                NUMBER EXCEEDING TOLERANCE  MAXIMUM ERROR        IN ELEMENT
 VOLUMETRIC                          1               -1.254E-05                  1

  NUMBER OF EQUATIONS =       25     NUMBER OF FLOATING PT. OPERATIONS =  5.52E+03

     CHECK POINT   START OF SOLVER    

     CHECK POINT  END OF SOLVER       

       ELAPSED USER TIME (SEC)      =   0.0000    
       ELAPSED SYSTEM TIME (SEC)    =   0.0000    
       ELAPSED TOTAL CPU TIME (SEC) =   0.0000    
       ELAPSED WALLCLOCK TIME (SEC) =          0

               CONVERGENCE CHECKS FOR EQUILIBRIUM ITERATION     3


 AVERAGE FORCE                       70.2       TIME AVG. FORCE        29.7    
 LARGEST RESIDUAL FORCE            -2.909E-04   AT NODE          7   DOF  3
 LARGEST INCREMENT OF DISP.         1.000E-02   AT NODE          3   DOF  2
 LARGEST CORRECTION TO DISP.        5.337E-06   AT NODE          6   DOF  3
          THE FORCE     EQUILIBRIUM EQUATIONS HAVE CONVERGED

 COMPATIBILITY ERRORS:
    TYPE                NUMBER EXCEEDING TOLERANCE  MAXIMUM ERROR        IN ELEMENT
 VOLUMETRIC                          0                3.779E-06                  1
          TIME INCREMENT MAY NOW INCREASE TO    0.100    
          TIME INCREMENT REDUCED TO   2.000E-02 TO MEET NEXT OUTPUT TIME POINT

 ITERATION SUMMARY FOR THE INCREMENT:   3 TOTAL ITERATIONS, OF WHICH
   0 ARE SEVERE DISCONTINUITY ITERATIONS AND  3 ARE EQUILIBRIUM ITERATIONS.

 TIME INCREMENT COMPLETED  2.000E-02,  FRACTION OF STEP COMPLETED  0.260    
 STEP TIME COMPLETED       0.260    ,  TOTAL TIME COMPLETED        0.260    


  INCREMENT    14 STARTS. ATTEMPT NUMBER  1, TIME INCREMENT  2.000E-02

  NUMBER OF EQUATIONS =       25     NUMBER OF FLOATING PT. OPERATIONS =  5.52E+03

     CHECK POINT   START OF SOLVER    

     CHECK POINT  END OF SOLVER       

       ELAPSED USER TIME (SEC)      =   0.0000    
       ELAPSED SYSTEM TIME (SEC)    =   0.0000    
       ELAPSED TOTAL CPU TIME (SEC) =   0.0000    
       ELAPSED WALLCLOCK TIME (SEC) =          0

               CONVERGENCE CHECKS FOR EQUILIBRIUM ITERATION     1


 AVERAGE FORCE                       25.3       TIME AVG. FORCE        29.4    
 LARGEST RESIDUAL FORCE            -3.330E-03   AT NODE          6   DOF  3
 LARGEST INCREMENT OF DISP.         1.000E-02   AT NODE          3   DOF  2
 LARGEST CORRECTION TO DISP.        5.597E-05   AT NODE          6   DOF  3
          THE FORCE     EQUILIBRIUM EQUATIONS HAVE CONVERGED

 COMPATIBILITY ERRORS:
    TYPE                NUMBER EXCEEDING TOLERANCE  MAXIMUM ERROR        IN ELEMENT
 VOLUMETRIC                          1                3.912E-05                  1

  NUMBER OF EQUATIONS =       25     NUMBER OF FLOATING PT. OPERATIONS =  5.52E+03

     CHECK POINT   START OF SOLVER    

     CHECK POINT  END OF SOLVER       

       ELAPSED USER TIME (SEC)      =   0.0000    
       ELAPSED SYSTEM TIME (SEC)    =   0.0000    
       ELAPSED TOTAL CPU TIME (SEC) =   0.0000    
       ELAPSED WALLCLOCK TIME (SEC) =          0

               CONVERGENCE CHECKS FOR EQUILIBRIUM ITERATION     2


 AVERAGE FORCE                       25.3       TIME AVG. FORCE        29.4    
 LARGEST RESIDUAL FORCE             1.006E-03   AT NODE          6   DOF  3
 LARGEST INCREMENT OF DISP.         1.000E-02   AT NODE          3   DOF  2
 LARGEST CORRECTION TO DISP.       -1.690E-05   AT NODE          3   DOF  1
          THE FORCE     EQUILIBRIUM EQUATIONS HAVE CONVERGED

 COMPATIBILITY ERRORS:
    TYPE                NUMBER EXCEEDING TOLERANCE  MAXIMUM ERROR        IN ELEMENT
 VOLUMETRIC                          1               -1.180E-05                  1

  NUMBER OF EQUATIONS =       25     NUMBER OF FLOATING PT. OPERATIONS =  5.52E+03

     CHECK POINT   START OF SOLVER    

     CHECK POINT  END OF SOLVER       

       ELAPSED USER TIME (SEC)      =   0.0000    
       ELAPSED SYSTEM TIME (SEC)    =   0.0000    
       ELAPSED TOTAL CPU TIME (SEC) =   0.0000    
       ELAPSED WALLCLOCK TIME (SEC) =          0

               CONVERGENCE CHECKS FOR EQUILIBRIUM ITERATION     3


 AVERAGE FORCE                       75.9       TIME AVG. FORCE        33.0    
 LARGEST RESIDUAL FORCE            -3.036E-04   AT NODE          6   DOF  3
 LARGEST INCREMENT OF DISP.         1.000E-02   AT NODE          3   DOF  2
 LARGEST CORRECTION TO DISP.        5.101E-06   AT NODE          6   DOF  1
          THE FORCE     EQUILIBRIUM EQUATIONS HAVE CONVERGED

 COMPATIBILITY ERRORS:
    TYPE                NUMBER EXCEEDING TOLERANCE  MAXIMUM ERROR        IN ELEMENT
 VOLUMETRIC                          0                3.563E-06                  1
          TIME INCREMENT MAY NOW INCREASE TO    0.100    
          TIME INCREMENT REDUCED TO   2.000E-02 TO MEET NEXT OUTPUT TIME POINT

 ITERATION SUMMARY FOR THE INCREMENT:   3 TOTAL ITERATIONS, OF WHICH
   0 ARE SEVERE DISCONTINUITY ITERATIONS AND  3 ARE EQUILIBRIUM ITERATIONS.

 TIME INCREMENT COMPLETED  2.000E-02,  FRACTION OF STEP COMPLETED  0.280    
 STEP TIME COMPLETED       0.280    ,  TOTAL TIME COMPLETED        0.280    


  INCREMENT    15 STARTS. ATTEMPT NUMBER  1, TIME INCREMENT  2.000E-02

  NUMBER OF EQUATIONS =       25     NUMBER OF FLOATING PT. OPERATIONS =  5.52E+03

     CHECK POINT   START OF SOLVER    

     CHECK POINT  END OF SOLVER       

       ELAPSED USER TIME (SEC)      =   0.0000    
       ELAPSED SYSTEM TIME (SEC)    =   0.0000    
       ELAPSED TOTAL CPU TIME (SEC) =   0.0000    
       ELAPSED WALLCLOCK TIME (SEC) =          0

               CONVERGENCE CHECKS FOR EQUILIBRIUM ITERATION     1


 AVERAGE FORCE                       27.2       TIME AVG. FORCE        32.6    
 LARGEST RESIDUAL FORCE            -3.448E-03   AT NODE          7   DOF  3
 LARGEST INCREMENT OF DISP.         1.000E-02   AT NODE          3   DOF  2
 LARGEST CORRECTION TO DISP.        5.334E-05   AT NODE          5   DOF  3
          THE FORCE     EQUILIBRIUM EQUATIONS HAVE CONVERGED

 COMPATIBILITY ERRORS:
    TYPE                NUMBER EXCEEDING TOLERANCE  MAXIMUM ERROR        IN ELEMENT
 VOLUMETRIC                          1                3.677E-05                  1

  NUMBER OF EQUATIONS =       25     NUMBER OF FLOATING PT. OPERATIONS =  5.52E+03

     CHECK POINT   START OF SOLVER    

     CHECK POINT  END OF SOLVER       

       ELAPSED USER TIME (SEC)      =   0.0000    
       ELAPSED SYSTEM TIME (SEC)    =   0.0000    
       ELAPSED TOTAL CPU TIME (SEC) =   0.0000    
       ELAPSED WALLCLOCK TIME (SEC) =          0

               CONVERGENCE CHECKS FOR EQUILIBRIUM ITERATION     2


 AVERAGE FORCE                       27.2       TIME AVG. FORCE        32.6    
 LARGEST RESIDUAL FORCE             1.043E-03   AT NODE          3   DOF  1
 LARGEST INCREMENT OF DISP.         1.000E-02   AT NODE          3   DOF  2
 LARGEST CORRECTION TO DISP.       -1.613E-05   AT NODE          7   DOF  3
          THE FORCE     EQUILIBRIUM EQUATIONS HAVE CONVERGED

 COMPATIBILITY ERRORS:
    TYPE                NUMBER EXCEEDING TOLERANCE  MAXIMUM ERROR        IN ELEMENT
 VOLUMETRIC                          1               -1.111E-05                  1

  NUMBER OF EQUATIONS =       25     NUMBER OF FLOATING PT. OPERATIONS =  5.52E+03

     CHECK POINT   START OF SOLVER    

     CHECK POINT  END OF SOLVER       

       ELAPSED USER TIME (SEC)      =  0.10000    
       ELAPSED SYSTEM TIME (SEC)    =   0.0000    
       ELAPSED TOTAL CPU TIME (SEC) =  0.10000    
       ELAPSED WALLCLOCK TIME (SEC) =          0

               CONVERGENCE CHECKS FOR EQUILIBRIUM ITERATION     3


 AVERAGE FORCE                       81.6       TIME AVG. FORCE        36.2    
 LARGEST RESIDUAL FORCE            -3.153E-04   AT NODE          7   DOF  1
 LARGEST INCREMENT OF DISP.         1.000E-02   AT NODE          3   DOF  2
 LARGEST CORRECTION TO DISP.        4.874E-06   AT NODE          3   DOF  1
          THE FORCE     EQUILIBRIUM EQUATIONS HAVE CONVERGED

 COMPATIBILITY ERRORS:
    TYPE                NUMBER EXCEEDING TOLERANCE  MAXIMUM ERROR        IN ELEMENT
 VOLUMETRIC                          0                3.358E-06                  1
          TIME INCREMENT MAY NOW INCREASE TO    0.100    
          TIME INCREMENT REDUCED TO   2.000E-02 TO MEET NEXT OUTPUT TIME POINT

 ITERATION SUMMARY FOR THE INCREMENT:   3 TOTAL ITERATIONS, OF WHICH
   0 ARE SEVERE DISCONTINUITY ITERATIONS AND  3 ARE EQUILIBRIUM ITERATIONS.

 TIME INCREMENT COMPLETED  2.000E-02,  FRACTION OF STEP COMPLETED  0.300    
 STEP TIME COMPLETED       0.300    ,  TOTAL TIME COMPLETED        0.300    


  INCREMENT    16 STARTS. ATTEMPT NUMBER  1, TIME INCREMENT  2.000E-02

  NUMBER OF EQUATIONS =       25     NUMBER OF FLOATING PT. OPERATIONS =  5.52E+03

     CHECK POINT   START OF SOLVER    

     CHECK POINT  END OF SOLVER       

       ELAPSED USER TIME (SEC)      =   0.0000    
       ELAPSED SYSTEM TIME (SEC)    =  0.10000    
       ELAPSED TOTAL CPU TIME (SEC) =  0.10000    
       ELAPSED WALLCLOCK TIME (SEC) =          0

               CONVERGENCE CHECKS FOR EQUILIBRIUM ITERATION     1


 AVERAGE FORCE                       29.1       TIME AVG. FORCE        35.8    
 LARGEST RESIDUAL FORCE            -3.555E-03   AT NODE          8   DOF  3
 LARGEST INCREMENT OF DISP.         1.000E-02   AT NODE          3   DOF  2
 LARGEST CORRECTION TO DISP.        5.084E-05   AT NODE          6   DOF  1
          THE FORCE     EQUILIBRIUM EQUATIONS HAVE CONVERGED

 COMPATIBILITY ERRORS:
    TYPE                NUMBER EXCEEDING TOLERANCE  MAXIMUM ERROR        IN ELEMENT
 VOLUMETRIC                          1                3.455E-05                  1

  NUMBER OF EQUATIONS =       25     NUMBER OF FLOATING PT. OPERATIONS =  5.52E+03

     CHECK POINT   START OF SOLVER    

     CHECK POINT  END OF SOLVER       

       ELAPSED USER TIME (SEC)      =   0.0000    
       ELAPSED SYSTEM TIME (SEC)    =   0.0000    
       ELAPSED TOTAL CPU TIME (SEC) =   0.0000    
       ELAPSED WALLCLOCK TIME (SEC) =          0

               CONVERGENCE CHECKS FOR EQUILIBRIUM ITERATION     2


 AVERAGE FORCE                       29.1       TIME AVG. FORCE        35.8    
 LARGEST RESIDUAL FORCE             1.077E-03   AT NODE          5   DOF  3
 LARGEST INCREMENT OF DISP.         1.000E-02   AT NODE          3   DOF  2
 LARGEST CORRECTION TO DISP.       -1.539E-05   AT NODE          7   DOF  1
          THE FORCE     EQUILIBRIUM EQUATIONS HAVE CONVERGED

 COMPATIBILITY ERRORS:
    TYPE                NUMBER EXCEEDING TOLERANCE  MAXIMUM ERROR        IN ELEMENT
 VOLUMETRIC                          1               -1.045E-05                  1

  NUMBER OF EQUATIONS =       25     NUMBER OF FLOATING PT. OPERATIONS =  5.52E+03

     CHECK POINT   START OF SOLVER    

     CHECK POINT  END OF SOLVER       

       ELAPSED USER TIME (SEC)      =   0.0000    
       ELAPSED SYSTEM TIME (SEC)    =   0.0000    
       ELAPSED TOTAL CPU TIME (SEC) =   0.0000    
       ELAPSED WALLCLOCK TIME (SEC) =          0

               CONVERGENCE CHECKS FOR EQUILIBRIUM ITERATION     3


 AVERAGE FORCE                       87.4       TIME AVG. FORCE        39.4    
 LARGEST RESIDUAL FORCE            -3.258E-04   AT NODE          6   DOF  3
 LARGEST INCREMENT OF DISP.         1.000E-02   AT NODE          3   DOF  2
 LARGEST CORRECTION TO DISP.        4.658E-06   AT NODE          7   DOF  1
          THE FORCE     EQUILIBRIUM EQUATIONS HAVE CONVERGED

 COMPATIBILITY ERRORS:
    TYPE                NUMBER EXCEEDING TOLERANCE  MAXIMUM ERROR        IN ELEMENT
 VOLUMETRIC                          0                3.164E-06                  1
          TIME INCREMENT MAY NOW INCREASE TO    0.100    
          TIME INCREMENT REDUCED TO   2.000E-02 TO MEET NEXT OUTPUT TIME POINT

 ITERATION SUMMARY FOR THE INCREMENT:   3 TOTAL ITERATIONS, OF WHICH
   0 ARE SEVERE DISCONTINUITY ITERATIONS AND  3 ARE EQUILIBRIUM ITERATIONS.

 TIME INCREMENT COMPLETED  2.000E-02,  FRACTION OF STEP COMPLETED  0.320    
 STEP TIME COMPLETED       0.320    ,  TOTAL TIME COMPLETED        0.320    


  INCREMENT    17 STARTS. ATTEMPT NUMBER  1, TIME INCREMENT  2.000E-02

  NUMBER OF EQUATIONS =       25     NUMBER OF FLOATING PT. OPERATIONS =  5.52E+03

     CHECK POINT   START OF SOLVER    

     CHECK POINT  END OF SOLVER       

       ELAPSED USER TIME (SEC)      =   0.0000    
       ELAPSED SYSTEM TIME (SEC)    =   0.0000    
       ELAPSED TOTAL CPU TIME (SEC) =   0.0000    
       ELAPSED WALLCLOCK TIME (SEC) =          0

               CONVERGENCE CHECKS FOR EQUILIBRIUM ITERATION     1


 AVERAGE FORCE                       31.1       TIME AVG. FORCE        38.9    
 LARGEST RESIDUAL FORCE            -3.651E-03   AT NODE          6   DOF  3
 LARGEST INCREMENT OF DISP.         1.000E-02   AT NODE          3   DOF  2
 LARGEST CORRECTION TO DISP.        4.848E-05   AT NODE          8   DOF  3
          THE FORCE     EQUILIBRIUM EQUATIONS HAVE CONVERGED

 COMPATIBILITY ERRORS:
    TYPE                NUMBER EXCEEDING TOLERANCE  MAXIMUM ERROR        IN ELEMENT
 VOLUMETRIC                          1                3.247E-05                  1

  NUMBER OF EQUATIONS =       25     NUMBER OF FLOATING PT. OPERATIONS =  5.52E+03

     CHECK POINT   START OF SOLVER    

     CHECK POINT  END OF SOLVER       

       ELAPSED USER TIME (SEC)      =   0.0000    
       ELAPSED SYSTEM TIME (SEC)    =   0.0000    
       ELAPSED TOTAL CPU TIME (SEC) =   0.0000    
       ELAPSED WALLCLOCK TIME (SEC) =          0

               CONVERGENCE CHECKS FOR EQUILIBRIUM ITERATION     2


 AVERAGE FORCE                       31.1       TIME AVG. FORCE        38.9    
 LARGEST RESIDUAL FORCE             1.107E-03   AT NODE          2   DOF  1
 LARGEST INCREMENT OF DISP.         1.000E-02   AT NODE          3   DOF  2
 LARGEST CORRECTION TO DISP.       -1.469E-05   AT NODE          8   DOF  3
          THE FORCE     EQUILIBRIUM EQUATIONS HAVE CONVERGED

 COMPATIBILITY ERRORS:
    TYPE                NUMBER EXCEEDING TOLERANCE  MAXIMUM ERROR        IN ELEMENT
 VOLUMETRIC                          0               -9.835E-06                  1
          TIME INCREMENT MAY NOW INCREASE TO    0.100    
          TIME INCREMENT REDUCED TO   2.000E-02 TO MEET NEXT OUTPUT TIME POINT

 ITERATION SUMMARY FOR THE INCREMENT:   2 TOTAL ITERATIONS, OF WHICH
   0 ARE SEVERE DISCONTINUITY ITERATIONS AND  2 ARE EQUILIBRIUM ITERATIONS.

 TIME INCREMENT COMPLETED  2.000E-02,  FRACTION OF STEP COMPLETED  0.340    
 STEP TIME COMPLETED       0.340    ,  TOTAL TIME COMPLETED        0.340    


  INCREMENT    18 STARTS. ATTEMPT NUMBER  1, TIME INCREMENT  2.000E-02

  NUMBER OF EQUATIONS =       25     NUMBER OF FLOATING PT. OPERATIONS =  5.52E+03

     CHECK POINT   START OF SOLVER    

     CHECK POINT  END OF SOLVER       

       ELAPSED USER TIME (SEC)      =   0.0000    
       ELAPSED SYSTEM TIME (SEC)    =   0.0000    
       ELAPSED TOTAL CPU TIME (SEC) =   0.0000    
       ELAPSED WALLCLOCK TIME (SEC) =          0

               CONVERGENCE CHECKS FOR EQUILIBRIUM ITERATION     1


 AVERAGE FORCE                       33.0       TIME AVG. FORCE        38.6    
 LARGEST RESIDUAL FORCE            -4.674E-03   AT NODE          5   DOF  3
 LARGEST INCREMENT OF DISP.         1.000E-02   AT NODE          3   DOF  2
 LARGEST CORRECTION TO DISP.        5.785E-05   AT NODE          6   DOF  3
          THE FORCE     EQUILIBRIUM EQUATIONS HAVE CONVERGED

 COMPATIBILITY ERRORS:
    TYPE                NUMBER EXCEEDING TOLERANCE  MAXIMUM ERROR        IN ELEMENT
 VOLUMETRIC                          1                3.819E-05                  1

  NUMBER OF EQUATIONS =       25     NUMBER OF FLOATING PT. OPERATIONS =  5.52E+03

     CHECK POINT   START OF SOLVER    

     CHECK POINT  END OF SOLVER       

       ELAPSED USER TIME (SEC)      =   0.0000    
       ELAPSED SYSTEM TIME (SEC)    =   0.0000    
       ELAPSED TOTAL CPU TIME (SEC) =   0.0000    
       ELAPSED WALLCLOCK TIME (SEC) =          0

               CONVERGENCE CHECKS FOR EQUILIBRIUM ITERATION     2


 AVERAGE FORCE                       33.0       TIME AVG. FORCE        38.6    
 LARGEST RESIDUAL FORCE             1.419E-03   AT NODE          7   DOF  1
 LARGEST INCREMENT OF DISP.         1.000E-02   AT NODE          3   DOF  2
 LARGEST CORRECTION TO DISP.       -1.755E-05   AT NODE          5   DOF  3
          THE FORCE     EQUILIBRIUM EQUATIONS HAVE CONVERGED

 COMPATIBILITY ERRORS:
    TYPE                NUMBER EXCEEDING TOLERANCE  MAXIMUM ERROR        IN ELEMENT
 VOLUMETRIC                          1               -1.157E-05                  1

  NUMBER OF EQUATIONS =       25     NUMBER OF FLOATING PT. OPERATIONS =  5.52E+03

     CHECK POINT   START OF SOLVER    

     CHECK POINT  END OF SOLVER       

       ELAPSED USER TIME (SEC)      =   0.0000    
       ELAPSED SYSTEM TIME (SEC)    =   0.0000    
       ELAPSED TOTAL CPU TIME (SEC) =   0.0000    
       ELAPSED WALLCLOCK TIME (SEC) =          0

               CONVERGENCE CHECKS FOR EQUILIBRIUM ITERATION     3


 AVERAGE FORCE                       99.0       TIME AVG. FORCE        42.3    
 LARGEST RESIDUAL FORCE            -4.302E-04   AT NODE          7   DOF  1
 LARGEST INCREMENT OF DISP.         1.000E-02   AT NODE          3   DOF  2
 LARGEST CORRECTION TO DISP.        5.322E-06   AT NODE          7   DOF  3
          THE FORCE     EQUILIBRIUM EQUATIONS HAVE CONVERGED

 COMPATIBILITY ERRORS:
    TYPE                NUMBER EXCEEDING TOLERANCE  MAXIMUM ERROR        IN ELEMENT
 VOLUMETRIC                          0                3.511E-06                  1
          TIME INCREMENT MAY NOW INCREASE TO    0.100    
          TIME INCREMENT REDUCED TO   2.000E-02 TO MEET NEXT OUTPUT TIME POINT

 ITERATION SUMMARY FOR THE INCREMENT:   3 TOTAL ITERATIONS, OF WHICH
   0 ARE SEVERE DISCONTINUITY ITERATIONS AND  3 ARE EQUILIBRIUM ITERATIONS.

 TIME INCREMENT COMPLETED  2.000E-02,  FRACTION OF STEP COMPLETED  0.360    
 STEP TIME COMPLETED       0.360    ,  TOTAL TIME COMPLETED        0.360    


  INCREMENT    19 STARTS. ATTEMPT NUMBER  1, TIME INCREMENT  2.000E-02

  NUMBER OF EQUATIONS =       25     NUMBER OF FLOATING PT. OPERATIONS =  5.52E+03

     CHECK POINT   START OF SOLVER    

     CHECK POINT  END OF SOLVER       

       ELAPSED USER TIME (SEC)      =   0.0000    
       ELAPSED SYSTEM TIME (SEC)    =   0.0000    
       ELAPSED TOTAL CPU TIME (SEC) =   0.0000    
       ELAPSED WALLCLOCK TIME (SEC) =          0

               CONVERGENCE CHECKS FOR EQUILIBRIUM ITERATION     1


 AVERAGE FORCE                       35.0       TIME AVG. FORCE        41.9    
 LARGEST RESIDUAL FORCE            -3.256E-03   AT NODE          6   DOF  3
 LARGEST INCREMENT OF DISP.         1.000E-02   AT NODE          3   DOF  2
 LARGEST CORRECTION TO DISP.        3.767E-05   AT NODE          3   DOF  1
          THE FORCE     EQUILIBRIUM EQUATIONS HAVE CONVERGED

 COMPATIBILITY ERRORS:
    TYPE                NUMBER EXCEEDING TOLERANCE  MAXIMUM ERROR        IN ELEMENT
 VOLUMETRIC                          1                2.449E-05                  1

  NUMBER OF EQUATIONS =       25     NUMBER OF FLOATING PT. OPERATIONS =  5.52E+03

     CHECK POINT   START OF SOLVER    

     CHECK POINT  END OF SOLVER       

       ELAPSED USER TIME (SEC)      =   0.0000    
       ELAPSED SYSTEM TIME (SEC)    =   0.0000    
       ELAPSED TOTAL CPU TIME (SEC) =   0.0000    
       ELAPSED WALLCLOCK TIME (SEC) =          0

               CONVERGENCE CHECKS FOR EQUILIBRIUM ITERATION     2


 AVERAGE FORCE                       35.0       TIME AVG. FORCE        41.9    
 LARGEST RESIDUAL FORCE             9.889E-04   AT NODE          2   DOF  1
 LARGEST INCREMENT OF DISP.         1.000E-02   AT NODE          3   DOF  2
 LARGEST CORRECTION TO DISP.       -1.144E-05   AT NODE          6   DOF  1
          THE FORCE     EQUILIBRIUM EQUATIONS HAVE CONVERGED

 COMPATIBILITY ERRORS:
    TYPE                NUMBER EXCEEDING TOLERANCE  MAXIMUM ERROR        IN ELEMENT
 VOLUMETRIC                          0               -7.431E-06                  1
          TIME INCREMENT MAY NOW INCREASE TO    0.100    
          TIME INCREMENT REDUCED TO   2.000E-02 TO MEET NEXT OUTPUT TIME POINT

 ITERATION SUMMARY FOR THE INCREMENT:   2 TOTAL ITERATIONS, OF WHICH
   0 ARE SEVERE DISCONTINUITY ITERATIONS AND  2 ARE EQUILIBRIUM ITERATIONS.

 TIME INCREMENT COMPLETED  2.000E-02,  FRACTION OF STEP COMPLETED  0.380    
 STEP TIME COMPLETED       0.380    ,  TOTAL TIME COMPLETED        0.380    


  INCREMENT    20 STARTS. ATTEMPT NUMBER  1, TIME INCREMENT  2.000E-02

  NUMBER OF EQUATIONS =       25     NUMBER OF FLOATING PT. OPERATIONS =  5.52E+03

     CHECK POINT   START OF SOLVER    

     CHECK POINT  END OF SOLVER       

       ELAPSED USER TIME (SEC)      =   0.0000    
       ELAPSED SYSTEM TIME (SEC)    =   0.0000    
       ELAPSED TOTAL CPU TIME (SEC) =   0.0000    
       ELAPSED WALLCLOCK TIME (SEC) =          0

               CONVERGENCE CHECKS FOR EQUILIBRIUM ITERATION     1


 AVERAGE FORCE                       36.9       TIME AVG. FORCE        41.6    
 LARGEST RESIDUAL FORCE            -4.778E-03   AT NODE          7   DOF  3
 LARGEST INCREMENT OF DISP.         1.000E-02   AT NODE          3   DOF  2
 LARGEST CORRECTION TO DISP.        5.186E-05   AT NODE          6   DOF  3
          THE FORCE     EQUILIBRIUM EQUATIONS HAVE CONVERGED

 COMPATIBILITY ERRORS:
    TYPE                NUMBER EXCEEDING TOLERANCE  MAXIMUM ERROR        IN ELEMENT
 VOLUMETRIC                          1                3.321E-05                  1

  NUMBER OF EQUATIONS =       25     NUMBER OF FLOATING PT. OPERATIONS =  5.52E+03

     CHECK POINT   START OF SOLVER    

     CHECK POINT  END OF SOLVER       

       ELAPSED USER TIME (SEC)      =   0.0000    
       ELAPSED SYSTEM TIME (SEC)    =  0.10000    
       ELAPSED TOTAL CPU TIME (SEC) =  0.10000    
       ELAPSED WALLCLOCK TIME (SEC) =          0

               CONVERGENCE CHECKS FOR EQUILIBRIUM ITERATION     2


 AVERAGE FORCE                       36.9       TIME AVG. FORCE        41.6    
 LARGEST RESIDUAL FORCE             1.453E-03   AT NODE          7   DOF  3
 LARGEST INCREMENT OF DISP.         1.000E-02   AT NODE          3   DOF  2
 LARGEST CORRECTION TO DISP.       -1.575E-05   AT NODE          7   DOF  3
          THE FORCE     EQUILIBRIUM EQUATIONS HAVE CONVERGED

 COMPATIBILITY ERRORS:
    TYPE                NUMBER EXCEEDING TOLERANCE  MAXIMUM ERROR        IN ELEMENT
 VOLUMETRIC                          1               -1.008E-05                  1

  NUMBER OF EQUATIONS =       25     NUMBER OF FLOATING PT. OPERATIONS =  5.52E+03

     CHECK POINT   START OF SOLVER    

     CHECK POINT  END OF SOLVER       

       ELAPSED USER TIME (SEC)      =   0.0000    
       ELAPSED SYSTEM TIME (SEC)    =   0.0000    
       ELAPSED TOTAL CPU TIME (SEC) =   0.0000    
       ELAPSED WALLCLOCK TIME (SEC) =          0

               CONVERGENCE CHECKS FOR EQUILIBRIUM ITERATION     3


 AVERAGE FORCE                       111.       TIME AVG. FORCE        45.3    
 LARGEST RESIDUAL FORCE            -4.411E-04   AT NODE          8   DOF  3
 LARGEST INCREMENT OF DISP.         1.000E-02   AT NODE          3   DOF  2
 LARGEST CORRECTION TO DISP.        4.785E-06   AT NODE          7   DOF  3
          THE FORCE     EQUILIBRIUM EQUATIONS HAVE CONVERGED

 COMPATIBILITY ERRORS:
    TYPE                NUMBER EXCEEDING TOLERANCE  MAXIMUM ERROR        IN ELEMENT
 VOLUMETRIC                          0                3.062E-06                  1
          TIME INCREMENT MAY NOW INCREASE TO    0.100    
          TIME INCREMENT REDUCED TO   2.000E-02 TO MEET NEXT OUTPUT TIME POINT

 ITERATION SUMMARY FOR THE INCREMENT:   3 TOTAL ITERATIONS, OF WHICH
   0 ARE SEVERE DISCONTINUITY ITERATIONS AND  3 ARE EQUILIBRIUM ITERATIONS.

 TIME INCREMENT COMPLETED  2.000E-02,  FRACTION OF STEP COMPLETED  0.400    
 STEP TIME COMPLETED       0.400    ,  TOTAL TIME COMPLETED        0.400    


  INCREMENT    21 STARTS. ATTEMPT NUMBER  1, TIME INCREMENT  2.000E-02

  NUMBER OF EQUATIONS =       25     NUMBER OF FLOATING PT. OPERATIONS =  5.52E+03

     CHECK POINT   START OF SOLVER    

     CHECK POINT  END OF SOLVER       

       ELAPSED USER TIME (SEC)      =  0.10000    
       ELAPSED SYSTEM TIME (SEC)    =   0.0000    
       ELAPSED TOTAL CPU TIME (SEC) =  0.10000    
       ELAPSED WALLCLOCK TIME (SEC) =          0

               CONVERGENCE CHECKS FOR EQUILIBRIUM ITERATION     1


 AVERAGE FORCE                       38.9       TIME AVG. FORCE        45.0    
 LARGEST RESIDUAL FORCE            -3.426E-03   AT NODE          3   DOF  1
 LARGEST INCREMENT OF DISP.         1.000E-02   AT NODE          3   DOF  2
 LARGEST CORRECTION TO DISP.        3.496E-05   AT NODE          3   DOF  1
          THE FORCE     EQUILIBRIUM EQUATIONS HAVE CONVERGED

 COMPATIBILITY ERRORS:
    TYPE                NUMBER EXCEEDING TOLERANCE  MAXIMUM ERROR        IN ELEMENT
 VOLUMETRIC                          1                2.204E-05                  1

  NUMBER OF EQUATIONS =       25     NUMBER OF FLOATING PT. OPERATIONS =  5.52E+03

     CHECK POINT   START OF SOLVER    

     CHECK POINT  END OF SOLVER       

       ELAPSED USER TIME (SEC)      =   0.0000    
       ELAPSED SYSTEM TIME (SEC)    =   0.0000    
       ELAPSED TOTAL CPU TIME (SEC) =   0.0000    
       ELAPSED WALLCLOCK TIME (SEC) =          0

               CONVERGENCE CHECKS FOR EQUILIBRIUM ITERATION     2


 AVERAGE FORCE                       38.9       TIME AVG. FORCE        45.0    
 LARGEST RESIDUAL FORCE             1.042E-03   AT NODE          6   DOF  1
 LARGEST INCREMENT OF DISP.         1.000E-02   AT NODE          3   DOF  2
 LARGEST CORRECTION TO DISP.       -1.063E-05   AT NODE          6   DOF  1
          THE FORCE     EQUILIBRIUM EQUATIONS HAVE CONVERGED

 COMPATIBILITY ERRORS:
    TYPE                NUMBER EXCEEDING TOLERANCE  MAXIMUM ERROR        IN ELEMENT
 VOLUMETRIC                          0               -6.696E-06                  1
          TIME INCREMENT MAY NOW INCREASE TO    0.100    
          TIME INCREMENT REDUCED TO   2.000E-02 TO MEET NEXT OUTPUT TIME POINT

 ITERATION SUMMARY FOR THE INCREMENT:   2 TOTAL ITERATIONS, OF WHICH
   0 ARE SEVERE DISCONTINUITY ITERATIONS AND  2 ARE EQUILIBRIUM ITERATIONS.

 TIME INCREMENT COMPLETED  2.000E-02,  FRACTION OF STEP COMPLETED  0.420    
 STEP TIME COMPLETED       0.420    ,  TOTAL TIME COMPLETED        0.420    


  INCREMENT    22 STARTS. ATTEMPT NUMBER  1, TIME INCREMENT  2.000E-02

  NUMBER OF EQUATIONS =       25     NUMBER OF FLOATING PT. OPERATIONS =  5.52E+03

     CHECK POINT   START OF SOLVER    

     CHECK POINT  END OF SOLVER       

       ELAPSED USER TIME (SEC)      =   0.0000    
       ELAPSED SYSTEM TIME (SEC)    =   0.0000    
       ELAPSED TOTAL CPU TIME (SEC) =   0.0000    
       ELAPSED WALLCLOCK TIME (SEC) =          0

               CONVERGENCE CHECKS FOR EQUILIBRIUM ITERATION     1


 AVERAGE FORCE                       40.9       TIME AVG. FORCE        44.8    
 LARGEST RESIDUAL FORCE            -4.928E-03   AT NODE          3   DOF  1
 LARGEST INCREMENT OF DISP.         1.000E-02   AT NODE          3   DOF  2
 LARGEST CORRECTION TO DISP.        4.740E-05   AT NODE          7   DOF  1
          THE FORCE     EQUILIBRIUM EQUATIONS HAVE CONVERGED

 COMPATIBILITY ERRORS:
[...]
 LARGEST INCREMENT OF DISP.         1.000E-02   AT NODE          3   DOF  2
 LARGEST CORRECTION TO DISP.       -6.592E-06   AT NODE          3   DOF  1
          THE FORCE     EQUILIBRIUM EQUATIONS HAVE CONVERGED

 COMPATIBILITY ERRORS:
    TYPE                NUMBER EXCEEDING TOLERANCE  MAXIMUM ERROR        IN ELEMENT
 VOLUMETRIC                          0               -3.093E-06                  1
          TIME INCREMENT MAY NOW INCREASE TO    0.100    
          TIME INCREMENT REDUCED TO   2.000E-02 TO MEET NEXT OUTPUT TIME POINT

 ITERATION SUMMARY FOR THE INCREMENT:   2 TOTAL ITERATIONS, OF WHICH
   0 ARE SEVERE DISCONTINUITY ITERATIONS AND  2 ARE EQUILIBRIUM ITERATIONS.

 TIME INCREMENT COMPLETED  2.000E-02,  FRACTION OF STEP COMPLETED  0.760    
 STEP TIME COMPLETED       0.760    ,  TOTAL TIME COMPLETED        0.760    


  INCREMENT    39 STARTS. ATTEMPT NUMBER  1, TIME INCREMENT  2.000E-02

  NUMBER OF EQUATIONS =       25     NUMBER OF FLOATING PT. OPERATIONS =  5.52E+03

     CHECK POINT   START OF SOLVER    

     CHECK POINT  END OF SOLVER       

       ELAPSED USER TIME (SEC)      =   0.0000    
       ELAPSED SYSTEM TIME (SEC)    =   0.0000    
       ELAPSED TOTAL CPU TIME (SEC) =   0.0000    
       ELAPSED WALLCLOCK TIME (SEC) =          0

               CONVERGENCE CHECKS FOR EQUILIBRIUM ITERATION     1


 AVERAGE FORCE                       76.3       TIME AVG. FORCE        51.2    
 LARGEST RESIDUAL FORCE            -4.655E-03   AT NODE          6   DOF  1
 LARGEST INCREMENT OF DISP.         1.000E-02   AT NODE          3   DOF  2
 LARGEST CORRECTION TO DISP.        2.087E-05   AT NODE          3   DOF  1
          THE FORCE     EQUILIBRIUM EQUATIONS HAVE CONVERGED

 COMPATIBILITY ERRORS:
    TYPE                NUMBER EXCEEDING TOLERANCE  MAXIMUM ERROR        IN ELEMENT
 VOLUMETRIC                          0                9.612E-06                  1
          TIME INCREMENT MAY NOW INCREASE TO    0.100    
          TIME INCREMENT REDUCED TO   2.000E-02 TO MEET NEXT OUTPUT TIME POINT

 ITERATION SUMMARY FOR THE INCREMENT:   1 TOTAL ITERATIONS, OF WHICH
   0 ARE SEVERE DISCONTINUITY ITERATIONS AND  1 ARE EQUILIBRIUM ITERATIONS.

 TIME INCREMENT COMPLETED  2.000E-02,  FRACTION OF STEP COMPLETED  0.780    
 STEP TIME COMPLETED       0.780    ,  TOTAL TIME COMPLETED        0.780    


  INCREMENT    40 STARTS. ATTEMPT NUMBER  1, TIME INCREMENT  2.000E-02

  NUMBER OF EQUATIONS =       25     NUMBER OF FLOATING PT. OPERATIONS =  5.52E+03

     CHECK POINT   START OF SOLVER    

     CHECK POINT  END OF SOLVER       

       ELAPSED USER TIME (SEC)      =   0.0000    
       ELAPSED SYSTEM TIME (SEC)    =   0.0000    
       ELAPSED TOTAL CPU TIME (SEC) =   0.0000    
       ELAPSED WALLCLOCK TIME (SEC) =          0

               CONVERGENCE CHECKS FOR EQUILIBRIUM ITERATION     1


 AVERAGE FORCE                       235.       TIME AVG. FORCE        55.8    
 LARGEST RESIDUAL FORCE            -8.218E-04   AT NODE          8   DOF  3
 LARGEST INCREMENT OF DISP.         1.000E-02   AT NODE          3   DOF  2
 LARGEST CORRECTION TO DISP.        3.555E-06   AT NODE          7   DOF  3
          THE FORCE     EQUILIBRIUM EQUATIONS HAVE CONVERGED

 COMPATIBILITY ERRORS:
    TYPE                NUMBER EXCEEDING TOLERANCE  MAXIMUM ERROR        IN ELEMENT
 VOLUMETRIC                          0                1.606E-06                  1
          TIME INCREMENT MAY NOW INCREASE TO    0.100    
          TIME INCREMENT REDUCED TO   2.000E-02 TO MEET NEXT OUTPUT TIME POINT

 ITERATION SUMMARY FOR THE INCREMENT:   1 TOTAL ITERATIONS, OF WHICH
   0 ARE SEVERE DISCONTINUITY ITERATIONS AND  1 ARE EQUILIBRIUM ITERATIONS.

 TIME INCREMENT COMPLETED  2.000E-02,  FRACTION OF STEP COMPLETED  0.800    
 STEP TIME COMPLETED       0.800    ,  TOTAL TIME COMPLETED        0.800    


  INCREMENT    41 STARTS. ATTEMPT NUMBER  1, TIME INCREMENT  2.000E-02

  NUMBER OF EQUATIONS =       25     NUMBER OF FLOATING PT. OPERATIONS =  5.52E+03

     CHECK POINT   START OF SOLVER    

     CHECK POINT  END OF SOLVER       

       ELAPSED USER TIME (SEC)      =   0.0000    
       ELAPSED SYSTEM TIME (SEC)    =   0.0000    
       ELAPSED TOTAL CPU TIME (SEC) =   0.0000    
       ELAPSED WALLCLOCK TIME (SEC) =          0

               CONVERGENCE CHECKS FOR EQUILIBRIUM ITERATION     1


 AVERAGE FORCE                       80.6       TIME AVG. FORCE        56.4    
 LARGEST RESIDUAL FORCE            -5.180E-03   AT NODE          6   DOF  1
 LARGEST INCREMENT OF DISP.         1.000E-02   AT NODE          3   DOF  2
 LARGEST CORRECTION TO DISP.        2.165E-05   AT NODE          6   DOF  1
          THE FORCE     EQUILIBRIUM EQUATIONS HAVE CONVERGED

 COMPATIBILITY ERRORS:
    TYPE                NUMBER EXCEEDING TOLERANCE  MAXIMUM ERROR        IN ELEMENT
 VOLUMETRIC                          0                9.595E-06                  1
          TIME INCREMENT MAY NOW INCREASE TO    0.100    
          TIME INCREMENT REDUCED TO   2.000E-02 TO MEET NEXT OUTPUT TIME POINT

 ITERATION SUMMARY FOR THE INCREMENT:   1 TOTAL ITERATIONS, OF WHICH
   0 ARE SEVERE DISCONTINUITY ITERATIONS AND  1 ARE EQUILIBRIUM ITERATIONS.

 TIME INCREMENT COMPLETED  2.000E-02,  FRACTION OF STEP COMPLETED  0.820    
 STEP TIME COMPLETED       0.820    ,  TOTAL TIME COMPLETED        0.820    


  INCREMENT    42 STARTS. ATTEMPT NUMBER  1, TIME INCREMENT  2.000E-02

  NUMBER OF EQUATIONS =       25     NUMBER OF FLOATING PT. OPERATIONS =  5.52E+03

     CHECK POINT   START OF SOLVER    

     CHECK POINT  END OF SOLVER       

       ELAPSED USER TIME (SEC)      =   0.0000    
       ELAPSED SYSTEM TIME (SEC)    =   0.0000    
       ELAPSED TOTAL CPU TIME (SEC) =   0.0000    
       ELAPSED WALLCLOCK TIME (SEC) =          0

               CONVERGENCE CHECKS FOR EQUILIBRIUM ITERATION     1


 AVERAGE FORCE                       248.       TIME AVG. FORCE        61.0    
 LARGEST RESIDUAL FORCE            -1.179E-03   AT NODE          7   DOF  3
 LARGEST INCREMENT OF DISP.         1.000E-02   AT NODE          3   DOF  2
 LARGEST CORRECTION TO DISP.        4.762E-06   AT NODE          5   DOF  3
          THE FORCE     EQUILIBRIUM EQUATIONS HAVE CONVERGED

 COMPATIBILITY ERRORS:
    TYPE                NUMBER EXCEEDING TOLERANCE  MAXIMUM ERROR        IN ELEMENT
 VOLUMETRIC                          0                2.070E-06                  1
          TIME INCREMENT MAY NOW INCREASE TO    0.100    
          TIME INCREMENT REDUCED TO   2.000E-02 TO MEET NEXT OUTPUT TIME POINT

 ITERATION SUMMARY FOR THE INCREMENT:   1 TOTAL ITERATIONS, OF WHICH
   0 ARE SEVERE DISCONTINUITY ITERATIONS AND  1 ARE EQUILIBRIUM ITERATIONS.

 TIME INCREMENT COMPLETED  2.000E-02,  FRACTION OF STEP COMPLETED  0.840    
 STEP TIME COMPLETED       0.840    ,  TOTAL TIME COMPLETED        0.840    


  INCREMENT    43 STARTS. ATTEMPT NUMBER  1, TIME INCREMENT  2.000E-02

  NUMBER OF EQUATIONS =       25     NUMBER OF FLOATING PT. OPERATIONS =  5.52E+03

     CHECK POINT   START OF SOLVER    

     CHECK POINT  END OF SOLVER       

       ELAPSED USER TIME (SEC)      =   0.0000    
       ELAPSED SYSTEM TIME (SEC)    =  0.10000    
       ELAPSED TOTAL CPU TIME (SEC) =  0.10000    
       ELAPSED WALLCLOCK TIME (SEC) =          0

               CONVERGENCE CHECKS FOR EQUILIBRIUM ITERATION     1


 AVERAGE FORCE                       85.0       TIME AVG. FORCE        61.5    
 LARGEST RESIDUAL FORCE            -5.068E-03   AT NODE          7   DOF  1
 LARGEST INCREMENT OF DISP.         1.000E-02   AT NODE          3   DOF  2
 LARGEST CORRECTION TO DISP.        1.980E-05   AT NODE          3   DOF  1
          THE FORCE     EQUILIBRIUM EQUATIONS HAVE CONVERGED

 COMPATIBILITY ERRORS:
    TYPE                NUMBER EXCEEDING TOLERANCE  MAXIMUM ERROR        IN ELEMENT
 VOLUMETRIC                          0                8.440E-06                  1
          TIME INCREMENT MAY NOW INCREASE TO    0.100    
          TIME INCREMENT REDUCED TO   2.000E-02 TO MEET NEXT OUTPUT TIME POINT

 ITERATION SUMMARY FOR THE INCREMENT:   1 TOTAL ITERATIONS, OF WHICH
   0 ARE SEVERE DISCONTINUITY ITERATIONS AND  1 ARE EQUILIBRIUM ITERATIONS.

 TIME INCREMENT COMPLETED  2.000E-02,  FRACTION OF STEP COMPLETED  0.860    
 STEP TIME COMPLETED       0.860    ,  TOTAL TIME COMPLETED        0.860    


  INCREMENT    44 STARTS. ATTEMPT NUMBER  1, TIME INCREMENT  2.000E-02

  NUMBER OF EQUATIONS =       25     NUMBER OF FLOATING PT. OPERATIONS =  5.52E+03

     CHECK POINT   START OF SOLVER    

     CHECK POINT  END OF SOLVER       

       ELAPSED USER TIME (SEC)      =   0.0000    
       ELAPSED SYSTEM TIME (SEC)    =   0.0000    
       ELAPSED TOTAL CPU TIME (SEC) =   0.0000    
       ELAPSED WALLCLOCK TIME (SEC) =          0

               CONVERGENCE CHECKS FOR EQUILIBRIUM ITERATION     1


 AVERAGE FORCE                       87.2       TIME AVG. FORCE        62.1    
 LARGEST RESIDUAL FORCE            -1.315E-03   AT NODE          6   DOF  3
 LARGEST INCREMENT OF DISP.         1.000E-02   AT NODE          3   DOF  2
 LARGEST CORRECTION TO DISP.        4.972E-06   AT NODE          6   DOF  3
          THE FORCE     EQUILIBRIUM EQUATIONS HAVE CONVERGED

 COMPATIBILITY ERRORS:
    TYPE                NUMBER EXCEEDING TOLERANCE  MAXIMUM ERROR        IN ELEMENT
 VOLUMETRIC                          0                2.078E-06                  1
          TIME INCREMENT MAY NOW INCREASE TO    0.100    
          TIME INCREMENT REDUCED TO   2.000E-02 TO MEET NEXT OUTPUT TIME POINT

 ITERATION SUMMARY FOR THE INCREMENT:   1 TOTAL ITERATIONS, OF WHICH
   0 ARE SEVERE DISCONTINUITY ITERATIONS AND  1 ARE EQUILIBRIUM ITERATIONS.

 TIME INCREMENT COMPLETED  2.000E-02,  FRACTION OF STEP COMPLETED  0.880    
 STEP TIME COMPLETED       0.880    ,  TOTAL TIME COMPLETED        0.880    


  INCREMENT    45 STARTS. ATTEMPT NUMBER  1, TIME INCREMENT  2.000E-02

  NUMBER OF EQUATIONS =       25     NUMBER OF FLOATING PT. OPERATIONS =  5.52E+03

     CHECK POINT   START OF SOLVER    

     CHECK POINT  END OF SOLVER       

       ELAPSED USER TIME (SEC)      =   0.0000    
       ELAPSED SYSTEM TIME (SEC)    =   0.0000    
       ELAPSED TOTAL CPU TIME (SEC) =   0.0000    
       ELAPSED WALLCLOCK TIME (SEC) =          0

               CONVERGENCE CHECKS FOR EQUILIBRIUM ITERATION     1


 AVERAGE FORCE                       89.4       TIME AVG. FORCE        62.7    
 LARGEST RESIDUAL FORCE            -4.882E-03   AT NODE          6   DOF  3
 LARGEST INCREMENT OF DISP.         1.000E-02   AT NODE          3   DOF  2
 LARGEST CORRECTION TO DISP.        1.788E-05   AT NODE          6   DOF  1
          THE FORCE     EQUILIBRIUM EQUATIONS HAVE CONVERGED

 COMPATIBILITY ERRORS:
    TYPE                NUMBER EXCEEDING TOLERANCE  MAXIMUM ERROR        IN ELEMENT
 VOLUMETRIC                          0                7.324E-06                  1
          TIME INCREMENT MAY NOW INCREASE TO    0.100    
          TIME INCREMENT REDUCED TO   2.000E-02 TO MEET NEXT OUTPUT TIME POINT

 ITERATION SUMMARY FOR THE INCREMENT:   1 TOTAL ITERATIONS, OF WHICH
   0 ARE SEVERE DISCONTINUITY ITERATIONS AND  1 ARE EQUILIBRIUM ITERATIONS.

 TIME INCREMENT COMPLETED  2.000E-02,  FRACTION OF STEP COMPLETED  0.900    
 STEP TIME COMPLETED       0.900    ,  TOTAL TIME COMPLETED        0.900    


  INCREMENT    46 STARTS. ATTEMPT NUMBER  1, TIME INCREMENT  2.000E-02

  NUMBER OF EQUATIONS =       25     NUMBER OF FLOATING PT. OPERATIONS =  5.52E+03

     CHECK POINT   START OF SOLVER    

     CHECK POINT  END OF SOLVER       

       ELAPSED USER TIME (SEC)      =   0.0000    
       ELAPSED SYSTEM TIME (SEC)    =   0.0000    
       ELAPSED TOTAL CPU TIME (SEC) =   0.0000    
       ELAPSED WALLCLOCK TIME (SEC) =          0

               CONVERGENCE CHECKS FOR EQUILIBRIUM ITERATION     1


 AVERAGE FORCE                       91.6       TIME AVG. FORCE        63.3    
 LARGEST RESIDUAL FORCE            -1.419E-03   AT NODE          6   DOF  3
 LARGEST INCREMENT OF DISP.         1.000E-02   AT NODE          3   DOF  2
 LARGEST CORRECTION TO DISP.        5.034E-06   AT NODE          5   DOF  3
          THE FORCE     EQUILIBRIUM EQUATIONS HAVE CONVERGED

 COMPATIBILITY ERRORS:
    TYPE                NUMBER EXCEEDING TOLERANCE  MAXIMUM ERROR        IN ELEMENT
 VOLUMETRIC                          0                2.021E-06                  1
          TIME INCREMENT MAY NOW INCREASE TO    0.100    
          TIME INCREMENT REDUCED TO   2.000E-02 TO MEET NEXT OUTPUT TIME POINT

 ITERATION SUMMARY FOR THE INCREMENT:   1 TOTAL ITERATIONS, OF WHICH
   0 ARE SEVERE DISCONTINUITY ITERATIONS AND  1 ARE EQUILIBRIUM ITERATIONS.

 TIME INCREMENT COMPLETED  2.000E-02,  FRACTION OF STEP COMPLETED  0.920    
 STEP TIME COMPLETED       0.920    ,  TOTAL TIME COMPLETED        0.920    


  INCREMENT    47 STARTS. ATTEMPT NUMBER  1, TIME INCREMENT  2.000E-02

  NUMBER OF EQUATIONS =       25     NUMBER OF FLOATING PT. OPERATIONS =  5.52E+03

     CHECK POINT   START OF SOLVER    

     CHECK POINT  END OF SOLVER       

       ELAPSED USER TIME (SEC)      =   0.0000    
       ELAPSED SYSTEM TIME (SEC)    =   0.0000    
       ELAPSED TOTAL CPU TIME (SEC) =   0.0000    
       ELAPSED WALLCLOCK TIME (SEC) =          0

               CONVERGENCE CHECKS FOR EQUILIBRIUM ITERATION     1


 AVERAGE FORCE                       93.9       TIME AVG. FORCE        64.0    
 LARGEST RESIDUAL FORCE            -4.689E-03   AT NODE          3   DOF  1
 LARGEST INCREMENT OF DISP.         1.000E-02   AT NODE          3   DOF  2
 LARGEST CORRECTION TO DISP.        1.613E-05   AT NODE          7   DOF  1
          THE FORCE     EQUILIBRIUM EQUATIONS HAVE CONVERGED

 COMPATIBILITY ERRORS:
    TYPE                NUMBER EXCEEDING TOLERANCE  MAXIMUM ERROR        IN ELEMENT
 VOLUMETRIC                          0                6.347E-06                  1
          TIME INCREMENT MAY NOW INCREASE TO    0.100    
          TIME INCREMENT REDUCED TO   2.000E-02 TO MEET NEXT OUTPUT TIME POINT

 ITERATION SUMMARY FOR THE INCREMENT:   1 TOTAL ITERATIONS, OF WHICH
   0 ARE SEVERE DISCONTINUITY ITERATIONS AND  1 ARE EQUILIBRIUM ITERATIONS.

 TIME INCREMENT COMPLETED  2.000E-02,  FRACTION OF STEP COMPLETED  0.940    
 STEP TIME COMPLETED       0.940    ,  TOTAL TIME COMPLETED        0.940    


  INCREMENT    48 STARTS. ATTEMPT NUMBER  1, TIME INCREMENT  2.000E-02

  NUMBER OF EQUATIONS =       25     NUMBER OF FLOATING PT. OPERATIONS =  5.52E+03

     CHECK POINT   START OF SOLVER    

     CHECK POINT  END OF SOLVER       

       ELAPSED USER TIME (SEC)      =   0.0000    
       ELAPSED SYSTEM TIME (SEC)    =   0.0000    
       ELAPSED TOTAL CPU TIME (SEC) =   0.0000    
       ELAPSED WALLCLOCK TIME (SEC) =          0

               CONVERGENCE CHECKS FOR EQUILIBRIUM ITERATION     1


 AVERAGE FORCE                       96.1       TIME AVG. FORCE        64.7    
 LARGEST RESIDUAL FORCE            -1.511E-03   AT NODE          5   DOF  3
 LARGEST INCREMENT OF DISP.         1.000E-02   AT NODE          3   DOF  2
 LARGEST CORRECTION TO DISP.        5.043E-06   AT NODE          5   DOF  3
          THE FORCE     EQUILIBRIUM EQUATIONS HAVE CONVERGED

 COMPATIBILITY ERRORS:
    TYPE                NUMBER EXCEEDING TOLERANCE  MAXIMUM ERROR        IN ELEMENT
 VOLUMETRIC                          0                1.943E-06                  1
          TIME INCREMENT MAY NOW INCREASE TO    0.100    
          TIME INCREMENT REDUCED TO   2.000E-02 TO MEET NEXT OUTPUT TIME POINT

 ITERATION SUMMARY FOR THE INCREMENT:   1 TOTAL ITERATIONS, OF WHICH
   0 ARE SEVERE DISCONTINUITY ITERATIONS AND  1 ARE EQUILIBRIUM ITERATIONS.

 TIME INCREMENT COMPLETED  2.000E-02,  FRACTION OF STEP COMPLETED  0.960    
 STEP TIME COMPLETED       0.960    ,  TOTAL TIME COMPLETED        0.960    


  INCREMENT    49 STARTS. ATTEMPT NUMBER  1, TIME INCREMENT  2.000E-02

  NUMBER OF EQUATIONS =       25     NUMBER OF FLOATING PT. OPERATIONS =  5.52E+03

     CHECK POINT   START OF SOLVER    

     CHECK POINT  END OF SOLVER       

       ELAPSED USER TIME (SEC)      =   0.0000    
       ELAPSED SYSTEM TIME (SEC)    =   0.0000    
       ELAPSED TOTAL CPU TIME (SEC) =   0.0000    
       ELAPSED WALLCLOCK TIME (SEC) =          0

               CONVERGENCE CHECKS FOR EQUILIBRIUM ITERATION     1


 AVERAGE FORCE                       98.3       TIME AVG. FORCE        65.3    
 LARGEST RESIDUAL FORCE            -4.497E-03   AT NODE          6   DOF  1
 LARGEST INCREMENT OF DISP.         1.000E-02   AT NODE          3   DOF  2
 LARGEST CORRECTION TO DISP.        1.457E-05   AT NODE          3   DOF  1
          THE FORCE     EQUILIBRIUM EQUATIONS HAVE CONVERGED

 COMPATIBILITY ERRORS:
    TYPE                NUMBER EXCEEDING TOLERANCE  MAXIMUM ERROR        IN ELEMENT
 VOLUMETRIC                          0                5.500E-06                  1
          TIME INCREMENT MAY NOW INCREASE TO    0.100    

 ITERATION SUMMARY FOR THE INCREMENT:   1 TOTAL ITERATIONS, OF WHICH
   0 ARE SEVERE DISCONTINUITY ITERATIONS AND  1 ARE EQUILIBRIUM ITERATIONS.

 TIME INCREMENT COMPLETED  2.000E-02,  FRACTION OF STEP COMPLETED  0.980    
 STEP TIME COMPLETED       0.980    ,  TOTAL TIME COMPLETED        0.980    


  INCREMENT    50 STARTS. ATTEMPT NUMBER  1, TIME INCREMENT  2.000E-02

  NUMBER OF EQUATIONS =       25     NUMBER OF FLOATING PT. OPERATIONS =  5.52E+03

     CHECK POINT   START OF SOLVER    

     CHECK POINT  END OF SOLVER       

       ELAPSED USER TIME (SEC)      =   0.0000    
       ELAPSED SYSTEM TIME (SEC)    =   0.0000    
       ELAPSED TOTAL CPU TIME (SEC) =   0.0000    
       ELAPSED WALLCLOCK TIME (SEC) =          0

               CONVERGENCE CHECKS FOR EQUILIBRIUM ITERATION     1


 AVERAGE FORCE                       101.       TIME AVG. FORCE        66.1    
 LARGEST RESIDUAL FORCE            -1.594E-03   AT NODE          6   DOF  1
 LARGEST INCREMENT OF DISP.         1.000E-02   AT NODE          3   DOF  2
 LARGEST CORRECTION TO DISP.        5.014E-06   AT NODE          6   DOF  3
          THE FORCE     EQUILIBRIUM EQUATIONS HAVE CONVERGED

 COMPATIBILITY ERRORS:
    TYPE                NUMBER EXCEEDING TOLERANCE  MAXIMUM ERROR        IN ELEMENT
 VOLUMETRIC                          0                1.854E-06                  1
          TIME INCREMENT MAY NOW INCREASE TO    0.100    

 ITERATION SUMMARY FOR THE INCREMENT:   1 TOTAL ITERATIONS, OF WHICH
   0 ARE SEVERE DISCONTINUITY ITERATIONS AND  1 ARE EQUILIBRIUM ITERATIONS.

 TIME INCREMENT COMPLETED  2.000E-02,  FRACTION OF STEP COMPLETED   1.00    
 STEP TIME COMPLETED        1.00    ,  TOTAL TIME COMPLETED         1.00    


          THE ANALYSIS HAS BEEN COMPLETED



     ANALYSIS SUMMARY:
     TOTAL OF         50  INCREMENTS
                       0  CUTBACKS IN AUTOMATIC INCREMENTATION
                     109  ITERATIONS INCLUDING CONTACT ITERATIONS IF PRESENT
                     109  PASSES THROUGH THE EQUATION SOLVER OF WHICH 
                     109  INVOLVE MATRIX DECOMPOSITION, INCLUDING
                       0  DECOMPOSITION(S) OF THE MASS MATRIX
                       1  REORDERING OF EQUATIONS TO MINIMIZE WAVEFRONT
                       0  ADDITIONAL RESIDUAL EVALUATIONS FOR LINE SEARCHES
                       0  ADDITIONAL OPERATOR EVALUATIONS FOR LINE SEARCHES
                       1  WARNING MESSAGES DURING USER INPUT PROCESSING
                       0  WARNING MESSAGES DURING ANALYSIS
                       0  ANALYSIS WARNINGS ARE NUMERICAL PROBLEM MESSAGES
                       0  ANALYSIS WARNINGS ARE NEGATIVE EIGENVALUE MESSAGES
                       0  ERROR MESSAGES



     JOB TIME SUMMARY
       USER TIME (SEC)      =  0.80000    
       SYSTEM TIME (SEC)    =  0.80000    
       TOTAL CPU TIME (SEC) =   1.6000    
       WALLCLOCK TIME (SEC) =          2
